| "2015.07rc1" 111596 1446781936 prefer_vt_curves
************************************
** Library generated Thu Nov 05 19:53:19 2015
** The IBIS file was C:\Myproject\SDRAM\si_lib\ibis\y95c.ibs
**
** Copyright (c) Signal Integrity Software 2012, All Rights Reserved
************************************
.SUBCKT y95c_dq_FF PU_REF PD_REF PAD A EN Z PC_REF GC_REF
*
*
* C_comp
CCOMP PAD GC_REF +3.02000E-12 IC=0
*
RA A 0 1Meg
VINIT Vini 0    dc 200n
RETIR ETR  Vini 1G
CETR  ETR  0    1n
BETR  0    ETR  I= Time < 40p ? 0. : 1n
RETIF ETF  Vini 1G
CETF  ETF  0    1n
BETF  0    ETF  I= Time < 40p ? 0. : 1n
RETR ETR 0 R= V(A) > .5 ? 1G  : .02
RETF ETF 0 R= V(A) > .5 ? .02 : 1G
* Input Receiver
BZ Z 0 V= V(PAD) > 1.400 ? 1.0 : 0.0
RZZ Z  0 1MEG
*
* Ground Clamp Structure;
XGC GC_Current 0 PAD GC_REF GND_CLAMP
BGC PAD GC_REF I= V(GC_Current)
*
* Power Clamp Structure;
XPC PC_Current 0 PC_REF PAD POWER_CLAMP
BPC PAD PC_REF I= V(PC_Current)
*
* Pull Down Structure;
AKT_PD_R ETR KT_PD_R KT_PD_R_T
AKT_PD_F ETF KT_PD_F KT_PD_F_T
.model KT_PD_R_T pwl2(
+ xy_array = [ 0. 1. 5p 1. 10.001p 1. 170.001p 1.002 195.001p 1.003 205.001p 1.001 245.001p 1. 255.001p 1.004 263.334p 1.002 270.001p .999 280p .998 286.667p .993
+ 292.501p .986 300p .981 305.001p .974 310.001p .966 317.5p .956 322.5p .951 327.501p .944 332.501p .945 342.5p .954 347.501p .96
+ 352.501p .974 360p .983 365.001p .99 370.001p .982 377.5p .954 382.5p .914 387.501p .849 392.501p .768 400p .614 405.001p .488
+ 410.001p .416 417.5p .291 422.5p .241 427.501p .212 434.001p .195 440p .189 455.001p .19 462.5p .194 467.501p .196 472.501p .194
+ 480p .188 486.667p .179 493.334p .16 500p .144 506.667p .125 513.334p .107 520p .09 526.667p .076 535.001p .061 545.001p .049
+ 550.001p .044 560p .036 565.001p .033 570.001p .029 580p .024 585.001p .022 590.001p .02 600p .016 605.001p .015 610.001p .014
+ 620p .011 625.001p .007 630.001p .004 640p .007 645.001p .005 650.001p .003 665.001p .002 670.001p 479.688u 685.001p -667.529u 705.001p -.002
+ 720p -.003 745.001p -.005 830.001p -.004 855.001p -.003 895.001p -.001 2.17n -711.926u 2.176n -712.584u 2.182n 0. 102.182n 0. ]  )
.model KT_PD_F_T pwl2(
+ xy_array = [ 0. -.004 5p 1. 10.001p -.002 75.001p -.003 90.001p -.001 135.001p -149.955u 145.001p .001 155.001p .003 165.001p .004 190.001p .003 200p 288.193u 210.001p -.001
+ 220p 818.638u 225.001p .004 230.001p .009 240p .027 245.001p .041 250.001p .057 260p .098 266.667p .134 273.334p .166 280p .192
+ 286.667p .218 292.501p .242 300p .275 305.001p .296 310.001p .317 317.5p .345 322.5p .362 327.501p .379 332.501p .393 340p .41
+ 345.001p .418 350.001p .424 357.5p .428 365.001p .429 370.001p .431 377.5p .441 382.5p .452 387.501p .466 392.501p .49 400p .506
+ 405.001p .529 410.001p .546 417.5p .579 422.5p .609 427.501p .635 434.001p .672 440p .701 446.001p .736 452.501p .767 460p .788
+ 465.001p .793 470.001p .812 477.5p .83 483.334p .811 490.001p .827 496.667p .831 503.334p .845 510.001p .855 520p .86 526.667p .877
+ 535.001p .875 545.001p .889 550.001p .895 560p .902 565.001p .904 570.001p .907 580p .917 585.001p .921 590.001p .925 600p .93
+ 605.001p .932 610.001p .935 620p .94 625.001p .942 630.001p .945 640p .948 645.001p .95 650.001p .953 660p .956 670.001p .958
+ 680p .961 685.001p .963 690.001p .965 700p .968 705.001p .97 710.001p .971 720p .972 730.001p .974 740p .977 750.001p .978
+ 765.001p .98 775.001p .981 785.001p .983 795.001p .984 805.001p .986 825.001p .987 840p .988 855.001p .99 870.001p .991 885.001p .993
+ 945.001p .994 975.001p .995 1n .996 1.025n .997 1.05n .998 1.255n .999 2.17n 1. 2.176n 1. 2.182n 1. 102.182n 1. ] )
*
BPD PAD PD_REF I= V(EN) < .5 ? 0 : ; Off
+ V(A) > .5 ? V(PD_Current)*V(KT_PD_R) : V(PD_Current)*V(KT_PD_F)
XPD PD_Current 0 PAD PD_REF PULL_DOWN
*
* Pullup Structure;
AKT_PU_R ETR KT_PU_R KT_PU_R_T
AKT_PU_F ETF KT_PU_F KT_PU_F_T
.model KT_PU_R_T pwl2(
+ xy_array = [ 0. 0. 5p 0. 10.001p -741.215u 210.001p 326.6u 286.667p -854.385u 292.501p -.002 302.5p -.003 315.001p -.004 327.501p -.003 332.501p 0. 340p .005 345.001p .011
+ 350.001p .016 357.5p .028 362.5p .036 367.501p .044 372.501p .055 380p .068 385.001p .078 390.001p .085 397.5p .094 402.5p .1
+ 407.501p .103 412.501p .107 420p .117 425.001p .134 430.001p .155 436p .184 442p .216 448.001p .248 455.001p .284 462.5p .321
+ 467.501p .343 472.501p .361 480p .379 486.667p .386 493.334p .381 500p .383 506.667p .38 513.334p .373 520p .368 526.667p .364
+ 535.001p .361 545.001p .363 550.001p .366 560p .374 565.001p .38 570.001p .387 580p .402 585.001p .411 590.001p .421 600p .443
+ 605.001p .454 610.001p .467 620p .491 625.001p .5 630.001p .511 640p .545 645.001p .557 650.001p .569 660p .599 665.001p .611
+ 670.001p .623 680p .651 685.001p .664 690.001p .676 700p .696 705.001p .715 710.001p .726 720p .744 725.001p .754 730.001p .765
+ 740p .783 745.001p .793 750.001p .803 760p .818 765.001p .826 770.001p .835 780p .849 785.001p .856 790.001p .863 800p .874
+ 805.001p .881 810.001p .887 820p .896 825.001p .901 830.001p .906 840p .914 845.001p .919 850.001p .923 860p .929 865.001p .933
+ 870.001p .935 880p .939 885.001p .942 890.001p .946 900p .954 905.001p .956 910.001p .958 925.001p .96 930.001p .962 940p .968
+ 945.001p .97 950.001p .971 965.001p .973 970.001p .974 980p .978 985.001p .979 1.015n .98 1.025n .981 1.035n .983 1.045n .984
+ 1.055n .985 1.065n .987 1.075n .988 1.085n .99 1.095n .991 1.2n .992 1.25n .993 1.3n .994 1.35n .995 1.4n .996
+ 1.45n .997 2.17n .997 2.176n .997 2.182n 1. 102.182n 1. ] )
.model KT_PU_F_T pwl2(
+ xy_array = [ 0. 1. 10.001p 1.003 20p 1.01 40p 1.015 45p 1.019 50.001p 1.023 60p 1.032 65p 1.039 80.001p 1.045 85.001p 1.049 90.001p 1.054
+ 100p 1.061 105p 1.064 110.001p 1.066 120p 1.07 130.001p 1.074 150.001p 1.071 160p 1.055 165.001p 1.041 170.001p 1.022 180p .969
+ 185.001p .934 190.001p .895 200p .805 205.001p .756 210.001p .707 220p .612 225.001p .566 230.001p .525 240p .451 245.001p .407
+ 250.001p .391 260p .353 266.667p .335 273.334p .318 280p .295 286.667p .275 292.501p .258 300p .241 305.001p .228 310.001p .214
+ 317.5p .19 322.5p .172 327.501p .156 332.501p .135 340p .101 345.001p .078 350.001p .056 357.5p .021 362.5p -321.163u 367.501p -.017
+ 372.501p -.029 380p -.034 387.501p -.03 392.501p -.018 400p -.022 405.001p -.015 412.501p -.012 422.5p -.007 427.501p -.004 434.001p -.002
+ 442p 840.25u 452.501p .003 715.001p 841.089u 2.17n -544.711u 2.176n -545.461u 2.182n 0. 102.182n 0. ] )
*
BPU PAD PU_REF I= V(EN) < .5 ? 0 : ; Off
+ V(A) > .5 ? V(PU_Current)*V(KT_PU_R) : V(PU_Current)*V(KT_PU_F)
XPU PU_Current 0 PU_REF PAD PULL_UP
*
* Ground Clamp IV;
.SUBCKT GND_CLAMP PAD_OUT GC_OUT PAD_IN GC_IN
* Connections     Out+ Out In+ In
AGndClamp %vd(PAD_IN,GC_IN) %vd(PAD_OUT,GC_OUT) transfer
.model transfer pwl2(
+ xy_array = [
+ -4.30000E+00 -9.11685E-01
+ -3.30000E+00 -9.11685E-01
+ -3.27500E+00 -9.02155E-01
+ -3.25000E+00 -8.92450E-01
+ -3.22500E+00 -8.82490E-01
+ -3.20000E+00 -8.72530E-01
+ -3.15000E+00 -8.52804E-01
+ -3.12500E+00 -8.42873E-01
+ -3.10000E+00 -8.32943E-01
+ -3.05000E+00 -8.13158E-01
+ -3.02500E+00 -8.03243E-01
+ -2.95000E+00 -7.73498E-01
+ -2.87500E+00 -7.43732E-01
+ -2.77500E+00 -7.04045E-01
+ -2.67500E+00 -6.64357E-01
+ -2.60000E+00 -6.34592E-01
+ -2.57500E+00 -6.24670E-01
+ -2.52500E+00 -6.04826E-01
+ -2.47500E+00 -5.84983E-01
+ -2.45000E+00 -5.75061E-01
+ -2.40000E+00 -5.55217E-01
+ -2.37500E+00 -5.45309E-01
+ -2.30000E+00 -5.15584E-01
+ -2.25000E+00 -4.95767E-01
+ -2.22500E+00 -4.85877E-01
+ -2.17500E+00 -4.66096E-01
+ -2.15000E+00 -4.56205E-01
+ -2.12500E+00 -4.46337E-01
+ -2.10000E+00 -4.36469E-01
+ -2.07500E+00 -4.26601E-01
+ -2.05000E+00 -4.16733E-01
+ -2.02500E+00 -4.06897E-01
+ -1.97500E+00 -3.87226E-01
+ -1.95000E+00 -3.77391E-01
+ -1.92500E+00 -3.67597E-01
+ -1.87500E+00 -3.48008E-01
+ -1.82500E+00 -3.28513E-01
+ -1.80000E+00 -3.18766E-01
+ -1.77500E+00 -3.09074E-01
+ -1.75000E+00 -2.99383E-01
+ -1.72500E+00 -2.89740E-01
+ -1.70000E+00 -2.80120E-01
+ -1.67500E+00 -2.70569E-01
+ -1.65000E+00 -2.61019E-01
+ -1.62500E+00 -2.51586E-01
+ -1.60000E+00 -2.42152E-01
+ -1.57500E+00 -2.32862E-01
+ -1.55000E+00 -2.23655E-01
+ -1.52500E+00 -2.14651E-01
+ -1.50000E+00 -2.05805E-01
+ -1.47500E+00 -1.97348E-01
+ -1.45000E+00 -1.89169E-01
+ -1.42500E+00 -1.81673E-01
+ -1.40000E+00 -1.74427E-01
+ -1.37500E+00 -1.67795E-01
+ -1.35000E+00 -1.61245E-01
+ -1.32500E+00 -1.54906E-01
+ -1.30000E+00 -1.48567E-01
+ -1.27500E+00 -1.42295E-01
+ -1.25000E+00 -1.36022E-01
+ -1.22500E+00 -1.29795E-01
+ -1.20000E+00 -1.23584E-01
+ -1.17500E+00 -1.17424E-01
+ -1.15000E+00 -1.11264E-01
+ -1.12500E+00 -1.05178E-01
+ -1.10000E+00 -9.90920E-02
+ -1.07500E+00 -9.30953E-02
+ -1.05000E+00 -8.70985E-02
+ -1.02500E+00 -8.12128E-02
+ -1.00000E+00 -7.53271E-02
+ -9.75000E-01 -6.95804E-02
+ -9.50000E-01 -6.38336E-02
+ -9.25000E-01 -5.82318E-02
+ -9.00000E-01 -5.26935E-02
+ -8.75000E-01 -4.73111E-02
+ -8.50000E-01 -4.20129E-02
+ -8.25000E-01 -3.69218E-02
+ -8.00000E-01 -3.19462E-02
+ -7.75000E-01 -2.72545E-02
+ -7.50000E-01 -2.27244E-02
+ -7.25000E-01 -1.85915E-02
+ -7.00000E-01 -1.46811E-02
+ -6.75000E-01 -1.13179E-02
+ -6.50000E-01 -8.23594E-03
+ -6.25000E-01 -5.84551E-03
+ -6.00000E-01 -3.74311E-03
+ -5.75000E-01 -2.34918E-03
+ -5.50000E-01 -1.18724E-03
+ -5.25000E-01 -5.95945E-04
+ -5.00000E-01 -1.24417E-04
+ -4.75000E-01 +0.00000E+00
+ +6.60000E+00 +0.00000E+00
+ +7.60000E+00 +0.00000E+00
+ ] )
.ENDS GND_CLAMP
*
* Power Clamp IV;
.SUBCKT POWER_CLAMP PAD_OUT PC_OUT PC_IN PAD_IN
* Connections       Out+ Out In+ In
APwrClamp %vd(PC_IN,PAD_IN) %vd(PAD_OUT,PC_OUT) transfer
.model transfer pwl2(
+ xy_array = [
+ -4.30000E+00 +7.46291E-02
+ -3.30000E+00 +7.46291E-02
+ -3.27500E+00 +7.34417E-02
+ -3.25000E+00 +7.25568E-02
+ -3.22500E+00 +7.16790E-02
+ -3.17500E+00 +6.99233E-02
+ -3.15000E+00 +6.90455E-02
+ -3.10000E+00 +6.72974E-02
+ -3.07500E+00 +6.64234E-02
+ -3.02500E+00 +6.46753E-02
+ -2.97500E+00 +6.29272E-02
+ -2.95000E+00 +6.20531E-02
+ -2.90000E+00 +6.03126E-02
+ -2.85000E+00 +5.85721E-02
+ -2.77500E+00 +5.59614E-02
+ -2.67500E+00 +5.24923E-02
+ -2.65000E+00 +5.16251E-02
+ -2.57500E+00 +4.90320E-02
+ -2.55000E+00 +4.81677E-02
+ -2.47500E+00 +4.55863E-02
+ -2.42500E+00 +4.38653E-02
+ -2.40000E+00 +4.30049E-02
+ -2.37500E+00 +4.21488E-02
+ -2.30000E+00 +3.95808E-02
+ -2.27500E+00 +3.87293E-02
+ -2.22500E+00 +3.70265E-02
+ -2.20000E+00 +3.61750E-02
+ -2.17500E+00 +3.53292E-02
+ -2.15000E+00 +3.44834E-02
+ -2.12500E+00 +3.36375E-02
+ -2.10000E+00 +3.27917E-02
+ -2.07500E+00 +3.19505E-02
+ -2.05000E+00 +3.11094E-02
+ -2.02500E+00 +3.02727E-02
+ -2.00000E+00 +2.94360E-02
+ -1.97500E+00 +2.86045E-02
+ -1.92500E+00 +2.69416E-02
+ -1.87500E+00 +2.52932E-02
+ -1.85000E+00 +2.44690E-02
+ -1.82500E+00 +2.36527E-02
+ -1.80000E+00 +2.28364E-02
+ -1.77500E+00 +2.20265E-02
+ -1.75000E+00 +2.12165E-02
+ -1.72500E+00 +2.04148E-02
+ -1.70000E+00 +1.96130E-02
+ -1.67500E+00 +1.88195E-02
+ -1.65000E+00 +1.80260E-02
+ -1.62500E+00 +1.72429E-02
+ -1.60000E+00 +1.64598E-02
+ -1.57500E+00 +1.56876E-02
+ -1.55000E+00 +1.49154E-02
+ -1.52500E+00 +1.41566E-02
+ -1.50000E+00 +1.33979E-02
+ -1.47500E+00 +1.26537E-02
+ -1.45000E+00 +1.19095E-02
+ -1.42500E+00 +1.11829E-02
+ -1.40000E+00 +1.04564E-02
+ -1.37500E+00 +9.74620E-03
+ -1.35000E+00 +9.04274E-03
+ -1.32500E+00 +8.35971E-03
+ -1.30000E+00 +7.67669E-03
+ -1.27500E+00 +7.01615E-03
+ -1.25000E+00 +6.36494E-03
+ -1.22500E+00 +5.73665E-03
+ -1.20000E+00 +5.11918E-03
+ -1.17500E+00 +4.52830E-03
+ -1.15000E+00 +3.95090E-03
+ -1.12500E+00 +3.40664E-03
+ -1.10000E+00 +2.87878E-03
+ -1.07500E+00 +2.39129E-03
+ -1.05000E+00 +1.92501E-03
+ -1.02500E+00 +1.51091E-03
+ -1.00000E+00 +1.12347E-03
+ -9.75000E-01 +8.01622E-04
+ -9.50000E-01 +5.11469E-04
+ -9.25000E-01 +2.99268E-04
+ -9.00000E-01 +1.16673E-04
+ -8.75000E-01 +6.90089E-06
+ -8.50000E-01 +0.00000E+00
+ +6.60000E+00 +0.00000E+00
+ +7.60000E+00 +0.00000E+00
+ ] )
.ENDS POWER_CLAMP
*
* Pull Down IV;
.SUBCKT PULL_DOWN PD_Current    REF   PAD   PD_REF
* Connections     Out+ Out In+ In
APullDown %vd(PAD,PD_REF) %vd(PD_Current,REF) transfer
.model transfer pwl2(
+ xy_array = [
+ -4.30000E+00 -2.07724E-01
+ -3.30000E+00 -2.07724E-01
+ -3.02500E+00 -2.02874E-01
+ -3.00000E+00 -2.02434E-01
+ -2.90000E+00 -2.00670E-01
+ -2.62500E+00 -1.94871E-01
+ -2.60000E+00 -1.94344E-01
+ -2.32500E+00 -1.87539E-01
+ -2.30000E+00 -1.86920E-01
+ -2.02500E+00 -1.78890E-01
+ -2.00000E+00 -1.78160E-01
+ -1.82500E+00 -1.72157E-01
+ -1.77500E+00 -1.70442E-01
+ -1.75000E+00 -1.69584E-01
+ -1.62500E+00 -1.64545E-01
+ -1.52500E+00 -1.60513E-01
+ -1.50000E+00 -1.59506E-01
+ -1.42500E+00 -1.55920E-01
+ -1.30000E+00 -1.49945E-01
+ -1.25000E+00 -1.47555E-01
+ -1.15000E+00 -1.41871E-01
+ -1.10000E+00 -1.39029E-01
+ -1.05000E+00 -1.36188E-01
+ -1.02500E+00 -1.34477E-01
+ -9.75000E-01 -1.31055E-01
+ -9.25000E-01 -1.27634E-01
+ -9.00000E-01 -1.25923E-01
+ -8.75000E-01 -1.23866E-01
+ -8.25000E-01 -1.19754E-01
+ -8.00000E-01 -1.17698E-01
+ -7.75000E-01 -1.15215E-01
+ -7.25000E-01 -1.10248E-01
+ -7.00000E-01 -1.07242E-01
+ -6.50000E-01 -1.01230E-01
+ -5.25000E-01 -8.24753E-02
+ -4.50000E-01 -7.12226E-02
+ +0.00000E+00 -2.40478E-05
+ +1.75000E-01 +2.70664E-02
+ +2.25000E-01 +3.48066E-02
+ +3.25000E-01 +4.90762E-02
+ +3.75000E-01 +5.62110E-02
+ +4.25000E-01 +6.33458E-02
+ +5.25000E-01 +7.64125E-02
+ +5.50000E-01 +7.96792E-02
+ +6.00000E-01 +8.62126E-02
+ +6.75000E-01 +9.50344E-02
+ +7.25000E-01 +1.00916E-01
+ +8.00000E-01 +1.09737E-01
+ +8.25000E-01 +1.12318E-01
+ +9.00000E-01 +1.20061E-01
+ +9.75000E-01 +1.27804E-01
+ +1.07500E+00 +1.36686E-01
+ +1.12500E+00 +1.41127E-01
+ +1.15000E+00 +1.43348E-01
+ +1.22500E+00 +1.48815E-01
+ +1.30000E+00 +1.54283E-01
+ +1.32500E+00 +1.56106E-01
+ +1.40000E+00 +1.60335E-01
+ +1.45000E+00 +1.63154E-01
+ +1.50000E+00 +1.65973E-01
+ +1.55000E+00 +1.68078E-01
+ +1.60000E+00 +1.70182E-01
+ +1.65000E+00 +1.72286E-01
+ +1.72500E+00 +1.74678E-01
+ +1.80000E+00 +1.77070E-01
+ +1.82500E+00 +1.77667E-01
+ +1.92500E+00 +1.80053E-01
+ +2.00000E+00 +1.81842E-01
+ +2.05000E+00 +1.82731E-01
+ +2.15000E+00 +1.84509E-01
+ +2.22500E+00 +1.85842E-01
+ +2.62500E+00 +1.90687E-01
+ +2.72500E+00 +1.91898E-01
+ +2.77500E+00 +1.92504E-01
+ +3.70000E+00 +2.00518E-01
+ +3.72500E+00 +2.00735E-01
+ +3.77500E+00 +2.01168E-01
+ +4.10000E+00 +2.06147E-01
+ +4.15000E+00 +2.06913E-01
+ +4.17500E+00 +2.07296E-01
+ +4.32500E+00 +2.11053E-01
+ +4.37500E+00 +2.12305E-01
+ +4.55000E+00 +2.18436E-01
+ +4.57500E+00 +2.19312E-01
+ +4.60000E+00 +2.20188E-01
+ +4.75000E+00 +2.27112E-01
+ +4.77500E+00 +2.28266E-01
+ +4.95000E+00 +2.38358E-01
+ +4.97500E+00 +2.39800E-01
+ +5.15000E+00 +2.52142E-01
+ +5.17500E+00 +2.53906E-01
+ +5.35000E+00 +2.68382E-01
+ +5.55000E+00 +2.87315E-01
+ +5.75000E+00 +3.08690E-01
+ +5.95000E+00 +3.32358E-01
+ +5.97500E+00 +3.35582E-01
+ +6.15000E+00 +3.58150E-01
+ +6.17500E+00 +3.61632E-01
+ +6.35000E+00 +3.86006E-01
+ +6.37500E+00 +3.89488E-01
+ +6.60000E+00 +4.23064E-01
+ +7.60000E+00 +4.23064E-01
+ ] )
.ENDS PULL_DOWN
*
* Pull Up IV;
.SUBCKT PULL_UP PU_Current REF PU_REF PAD
* Connections   Out+ Out In+ In
APullUp %vd(PU_REF,PAD) %vd(PU_Current,REF) transfer
.model transfer pwl2(
+ xy_array = [
+ -4.30000E+00 +4.46502E-03
+ -3.30000E+00 +4.46502E-03
+ -3.22500E+00 +4.25072E-03
+ -3.07500E+00 +3.82212E-03
+ -2.90000E+00 +3.32209E-03
+ -2.85000E+00 +3.17922E-03
+ -2.57500E+00 +2.71363E-03
+ -2.12500E+00 +1.95175E-03
+ -1.12500E+00 +1.02193E-03
+ -4.25000E-01 +3.71062E-04
+ -3.25000E-01 +2.78081E-04
+ -2.50000E-01 +2.08344E-04
+ -2.25000E-01 +1.85099E-04
+ -1.25000E-01 +9.21173E-05
+ -7.50000E-02 +4.56265E-05
+ +0.00000E+00 -2.41097E-05
+ +5.00000E-02 -5.73575E-04
+ +1.00000E-01 -1.62420E-03
+ +1.25000E-01 -2.55643E-03
+ +1.50000E-01 -3.48866E-03
+ +1.75000E-01 -4.42088E-03
+ +2.25000E-01 -7.19748E-03
+ +2.75000E-01 -9.97408E-03
+ +3.50000E-01 -1.53860E-02
+ +3.75000E-01 -1.71900E-02
+ +4.00000E-01 -1.89940E-02
+ +5.25000E-01 -2.96012E-02
+ +5.50000E-01 -3.17226E-02
+ +6.75000E-01 -4.34702E-02
+ +7.00000E-01 -4.58197E-02
+ +8.50000E-01 -6.10213E-02
+ +9.00000E-01 -6.60886E-02
+ +1.00000E+00 -7.68039E-02
+ +1.07500E+00 -8.48403E-02
+ +1.10000E+00 -8.75192E-02
+ +1.20000E+00 -9.86460E-02
+ +1.22500E+00 -1.01428E-01
+ +1.30000E+00 -1.09773E-01
+ +1.45000E+00 -1.26915E-01
+ +1.50000E+00 -1.32630E-01
+ +1.70000E+00 -1.55989E-01
+ +1.72500E+00 -1.58908E-01
+ +1.75000E+00 -1.61828E-01
+ +1.97500E+00 -1.88577E-01
+ +2.00000E+00 -1.91550E-01
+ +2.25000E+00 -2.21757E-01
+ +2.27500E+00 -2.24777E-01
+ +2.40000E+00 -2.39881E-01
+ +2.52500E+00 -2.55221E-01
+ +2.60000E+00 -2.64426E-01
+ +2.82500E+00 -2.92038E-01
+ +2.90000E+00 -3.01242E-01
+ +2.97500E+00 -3.10552E-01
+ +3.15000E+00 -3.32274E-01
+ +3.30000E+00 -3.50892E-01
+ +3.40000E+00 -3.63305E-01
+ +3.52500E+00 -3.78943E-01
+ +3.60000E+00 -3.88326E-01
+ +3.65000E+00 -3.94582E-01
+ +3.70000E+00 -4.00837E-01
+ +3.75000E+00 -4.07093E-01
+ +3.80000E+00 -4.13348E-01
+ +3.82500E+00 -4.16476E-01
+ +3.87500E+00 -4.22731E-01
+ +3.90000E+00 -4.25859E-01
+ +3.92500E+00 -4.28987E-01
+ +3.97500E+00 -4.35242E-01
+ +4.00000E+00 -4.38370E-01
+ +4.05000E+00 -4.44625E-01
+ +4.07500E+00 -4.47753E-01
+ +4.10000E+00 -4.50672E-01
+ +4.12500E+00 -4.53590E-01
+ +4.15000E+00 -4.56049E-01
+ +4.17500E+00 -4.58413E-01
+ +4.22500E+00 -4.61964E-01
+ +4.25000E+00 -4.62969E-01
+ +4.27500E+00 -4.63974E-01
+ +4.32500E+00 -4.65029E-01
+ +4.35000E+00 -4.65149E-01
+ +4.37500E+00 -4.65269E-01
+ +4.45000E+00 -4.64904E-01
+ +4.52500E+00 -4.63970E-01
+ +4.57500E+00 -4.63027E-01
+ +4.65000E+00 -4.61612E-01
+ +4.70000E+00 -4.60418E-01
+ +4.80000E+00 -4.58031E-01
+ +4.85000E+00 -4.56837E-01
+ +4.97500E+00 -4.53853E-01
+ +5.02500E+00 -4.51652E-01
+ +5.07500E+00 -4.47915E-01
+ +5.12500E+00 -4.43597E-01
+ +5.17500E+00 -4.40119E-01
+ +5.20000E+00 -4.38864E-01
+ +5.27500E+00 -4.35097E-01
+ +5.40000E+00 -4.29918E-01
+ +5.70000E+00 -4.18624E-01
+ +5.72500E+00 -4.17750E-01
+ +5.95000E+00 -4.09881E-01
+ +6.00000E+00 -4.08133E-01
+ +6.30000E+00 -3.98328E-01
+ +6.60000E+00 -3.89183E-01
+ +7.60000E+00 -3.89183E-01
+ ] )
.ENDS PULL_UP
*
.ENDS y95c_dq_FF
*************************************
************************************
** Library generated Thu Nov 05 19:53:19 2015
** The IBIS file was C:\Myproject\SDRAM\si_lib\ibis\y95c.ibs
**
** Copyright (c) Signal Integrity Software 2012, All Rights Reserved
************************************
.SUBCKT y95c_dq_TT PU_REF PD_REF PAD A EN Z PC_REF GC_REF
*
*
* C_comp
CCOMP PAD GC_REF +3.95000E-12 IC=0
*
RA A 0 1Meg
VINIT Vini 0    dc 200n
RETIR ETR  Vini 1G
CETR  ETR  0    1n
BETR  0    ETR  I= Time < 40p ? 0. : 1n
RETIF ETF  Vini 1G
CETF  ETF  0    1n
BETF  0    ETF  I= Time < 40p ? 0. : 1n
RETR ETR 0 R= V(A) > .5 ? 1G  : .02
RETF ETF 0 R= V(A) > .5 ? .02 : 1G
* Input Receiver
BZ Z 0 V= V(PAD) > 1.400 ? 1.0 : 0.0
RZZ Z  0 1MEG
*
* Ground Clamp Structure;
XGC GC_Current 0 PAD GC_REF GND_CLAMP
BGC PAD GC_REF I= V(GC_Current)
*
* Power Clamp Structure;
XPC PC_Current 0 PC_REF PAD POWER_CLAMP
BPC PAD PC_REF I= V(PC_Current)
*
* Pull Down Structure;
AKT_PD_R ETR KT_PD_R KT_PD_R_T
AKT_PD_F ETF KT_PD_F KT_PD_F_T
.model KT_PD_R_T pwl2(
+ xy_array = [ 0. 1.004 5p 1.004 10p 1.004 229.999p 1.005 275p 1.007 295p 1.01 305p 1.006 315p 1.004 329.999p 1.002 336.666p .993 343.333p .988 349.999p .976
+ 356.666p .972 363.333p .963 369.999p .949 376.666p .933 383.333p .914 389.999p .892 396.666p .869 403.333p .856 409.999p .843 416.666p .829
+ 422.5p .828 429.999p .811 436.666p .772 443.333p .736 449.999p .679 456.666p .602 463.333p .503 469.999p .385 476.666p .273 483.333p .203
+ 489.999p .143 496.666p .085 502.5p .078 509.999p .063 515p .055 520p .053 527.499p .056 532.499p .06 537.5p .061 543.333p .057
+ 549.999p .044 560p .041 566.666p .035 573.333p .031 580p .026 586.666p .02 595p .009 600p .006 609.999p .003 615p .001
+ 620p 0. 629.999p -.003 635p -.006 640p -.007 649.999p -.008 665p -.007 675p -.005 695p -.007 705p -.001 715p -.007
+ 720p -.004 745p -.002 760p -.004 769.999p -.002 785p -840.141u 800p -.002 845p -.003 855p -.005 895p -.006 945p -.005
+ 965p -.003 1.015n -.001 1.74n -871.991u 1.746n -873.646u 1.752n 0. 101.752n 0. ]  )
.model KT_PD_F_T pwl2(
+ xy_array = [ 0. -.004 5p 1.004 10p -.002 135p -109.767u 180p 982.263u 189.999p .005 195p .007 225p .008 235p .011 260p .009 275p .011 280p .014
+ 289.999p .027 295p .037 300p .049 309.999p .082 315p .101 320p .121 329.999p .162 336.666p .192 343.333p .217 349.999p .244
+ 356.666p .272 363.333p .298 369.999p .322 376.666p .345 383.333p .367 389.999p .387 396.666p .404 403.333p .42 409.999p .432 416.666p .44
+ 422.5p .445 429.999p .45 436.666p .451 453.333p .456 460p .473 466.666p .488 473.333p .52 480p .526 486.666p .547 493.333p .563
+ 500p .588 507.499p .619 512.499p .638 517.5p .656 522.5p .676 529.999p .706 535p .729 540p .747 546.666p .772 553.333p .794
+ 560p .809 566.666p .815 573.333p .832 580p .843 589.999p .858 595p .817 600p .835 609.999p .847 615p .843 620p .848
+ 629.999p .859 635p .857 640p .861 649.999p .872 660p .876 669.999p .886 675p .889 680p .892 689.999p .898 695p .902
+ 700p .906 709.999p .911 715p .914 720p .917 729.999p .922 735p .925 740p .927 749.999p .93 755p .932 760p .935
+ 769.999p .941 775p .943 780p .944 795p .947 800p .948 809.999p .952 815p .954 820p .956 829.999p .961 835p .962
+ 840p .963 855p .965 860p .967 869.999p .969 875p .971 880p .972 889.999p .974 909.999p .976 920p .978 929.999p .98
+ 940p .981 950p .983 980p .985 989.999p .986 1n .988 1.01n .989 1.02n .99 1.03n .991 1.075n .993 1.095n .994
+ 1.115n .995 1.135n .996 1.155n .997 1.175n .999 1.195n 1. 1.31n 1.001 1.37n 1.002 1.429n 1.003 1.74n 1.003 1.746n 1.003
+ 1.752n 1. 101.752n 1. ] )
*
BPD PAD PD_REF I= V(EN) < .5 ? 0 : ; Off
+ V(A) > .5 ? V(PD_Current)*V(KT_PD_R) : V(PD_Current)*V(KT_PD_F)
XPD PD_Current 0 PAD PD_REF PULL_DOWN
*
* Pullup Structure;
AKT_PU_R ETR KT_PU_R KT_PU_R_T
AKT_PU_F ETF KT_PU_F KT_PU_F_T
.model KT_PU_R_T pwl2(
+ xy_array = [ 0. 0. 5p 0. 10p -803.414u 249.999p 241.081u 320p -801.556u 343.333p -.002 356.666p -.004 373.333p -.005 393.333p -.006 400p -.004 406.666p -330.393u 413.333p .004
+ 420p .009 427.499p .02 433.333p .024 440p .033 446.666p .042 453.333p .051 460p .058 466.666p .065 473.333p .071 480p .077
+ 486.666p .087 493.333p .094 500p .105 507.499p .144 512.499p .161 517.5p .179 522.5p .197 529.999p .225 535p .241 540p .254
+ 546.666p .264 553.333p .27 560p .277 566.666p .282 573.333p .288 580p .293 589.999p .291 595p .286 605p .291 620p .295
+ 629.999p .303 635p .301 640p .305 649.999p .315 655p .318 660p .324 669.999p .339 675p .347 680p .355 689.999p .369
+ 695p .377 700p .386 709.999p .408 715p .414 720p .427 729.999p .451 735p .462 740p .472 749.999p .497 755p .508
+ 760p .518 769.999p .542 775p .556 780p .57 789.999p .599 795p .609 800p .62 809.999p .643 815p .655 820p .667
+ 829.999p .689 835p .701 840p .712 849.999p .725 855p .736 860p .745 869.999p .761 875p .771 880p .78 889.999p .793
+ 895p .802 900p .81 909.999p .822 915p .829 920p .836 929.999p .847 935p .853 940p .859 945p .862 950p .868
+ 955p .872 960p .876 965p .881 970p .883 975p .887 980p .893 989.999p .905 1n .907 1.01n .915 1.015n .923
+ 1.02n .925 1.035n .926 1.04n .929 1.05n .936 1.055n .939 1.06n .942 1.07n .949 1.075n .951 1.085n .949 1.1n .95
+ 1.11n .954 1.115n .956 1.12n .957 1.125n .959 1.13n .961 1.135n .963 1.14n .964 1.145n .966 1.15n .968 1.155n .97
+ 1.16n .971 1.17n .975 1.18n .976 1.19n .974 1.205n .975 1.215n .977 1.225n .979 1.235n .98 1.245n .982 1.255n .983
+ 1.265n .985 1.275n .986 1.285n .988 1.295n .989 1.31n .988 1.335n .989 1.355n .991 1.375n .992 1.395n .993 1.411n .994
+ 1.429n .996 1.533n .997 1.591n .998 1.647n .999 1.74n .999 1.746n .999 1.752n 1. 101.752n 1. ] )
.model KT_PU_F_T pwl2(
+ xy_array = [ 0. 1. 10p 1.007 25p 1.013 35p 1.016 45p 1.02 55p 1.024 60p 1.026 69.999p 1.031 75p 1.033 85p 1.037 95p 1.04
+ 105p 1.044 115p 1.051 135p 1.056 169.999p 1.054 175p 1.049 180p 1.045 189.999p 1.041 195p 1.031 200p 1.016 209.999p .978
+ 215p .957 220p .941 229.999p .899 235p .87 240p .845 249.999p .778 255p .727 260p .686 269.999p .596 275p .546
+ 280p .508 289.999p .443 295p .407 300p .367 309.999p .325 315p .309 320p .295 329.999p .271 336.666p .256 343.333p .24
+ 349.999p .227 356.666p .215 363.333p .201 369.999p .185 376.666p .169 383.333p .151 389.999p .131 396.666p .107 403.333p .088 409.999p .064
+ 416.666p .037 422.5p .016 429.999p -.01 436.666p -.031 443.333p -.049 449.999p -.061 460p -.058 466.666p -.051 473.333p -.03 480p -.034
+ 486.666p -.027 496.666p -.024 502.5p -.021 509.999p -.011 515p -.007 522.5p -.004 532.499p -149.185u 553.333p .002 960p 172.852u 1.74n -579.632u
+ 1.746n -580.488u 1.752n 0. 101.752n 0. ] )
*
BPU PAD PU_REF I= V(EN) < .5 ? 0 : ; Off
+ V(A) > .5 ? V(PU_Current)*V(KT_PU_R) : V(PU_Current)*V(KT_PU_F)
XPU PU_Current 0 PU_REF PAD PULL_UP
*
* Ground Clamp IV;
.SUBCKT GND_CLAMP PAD_OUT GC_OUT PAD_IN GC_IN
* Connections     Out+ Out In+ In
AGndClamp %vd(PAD_IN,GC_IN) %vd(PAD_OUT,GC_OUT) transfer
.model transfer pwl2(
+ xy_array = [
+ -4.30000E+00 -8.33064E-01
+ -3.30000E+00 -8.33064E-01
+ -3.27500E+00 -8.24135E-01
+ -3.25000E+00 -8.14825E-01
+ -3.22500E+00 -8.05271E-01
+ -3.20000E+00 -7.95807E-01
+ -3.15000E+00 -7.76878E-01
+ -3.12500E+00 -7.67413E-01
+ -3.10000E+00 -7.57948E-01
+ -3.05000E+00 -7.39019E-01
+ -3.02500E+00 -7.29555E-01
+ -2.95000E+00 -7.01205E-01
+ -2.87500E+00 -6.72855E-01
+ -2.77500E+00 -6.35055E-01
+ -2.67500E+00 -5.97364E-01
+ -2.60000E+00 -5.69095E-01
+ -2.57500E+00 -5.59673E-01
+ -2.52500E+00 -5.40881E-01
+ -2.47500E+00 -5.22088E-01
+ -2.45000E+00 -5.12716E-01
+ -2.40000E+00 -4.93970E-01
+ -2.37500E+00 -4.84597E-01
+ -2.30000E+00 -4.56588E-01
+ -2.25000E+00 -4.37915E-01
+ -2.22500E+00 -4.28578E-01
+ -2.17500E+00 -4.10010E-01
+ -2.15000E+00 -4.00726E-01
+ -2.12500E+00 -3.91442E-01
+ -2.10000E+00 -3.82158E-01
+ -2.07500E+00 -3.72921E-01
+ -2.05000E+00 -3.63685E-01
+ -2.02500E+00 -3.54448E-01
+ -1.97500E+00 -3.36050E-01
+ -1.95000E+00 -3.26885E-01
+ -1.92500E+00 -3.17721E-01
+ -1.87500E+00 -2.99470E-01
+ -1.82500E+00 -2.81311E-01
+ -1.80000E+00 -2.72286E-01
+ -1.77500E+00 -2.63261E-01
+ -1.75000E+00 -2.54302E-01
+ -1.72500E+00 -2.45343E-01
+ -1.70000E+00 -2.36466E-01
+ -1.67500E+00 -2.27590E-01
+ -1.65000E+00 -2.18819E-01
+ -1.62500E+00 -2.10049E-01
+ -1.60000E+00 -2.01400E-01
+ -1.57500E+00 -1.92801E-01
+ -1.55000E+00 -1.84354E-01
+ -1.52500E+00 -1.75984E-01
+ -1.50000E+00 -1.67866E-01
+ -1.47500E+00 -1.59873E-01
+ -1.45000E+00 -1.52325E-01
+ -1.42500E+00 -1.44997E-01
+ -1.40000E+00 -1.38305E-01
+ -1.37500E+00 -1.31929E-01
+ -1.35000E+00 -1.26009E-01
+ -1.32500E+00 -1.20315E-01
+ -1.30000E+00 -1.14776E-01
+ -1.27500E+00 -1.09314E-01
+ -1.25000E+00 -1.03934E-01
+ -1.22500E+00 -9.85528E-02
+ -1.20000E+00 -9.32607E-02
+ -1.17500E+00 -8.79685E-02
+ -1.15000E+00 -8.27728E-02
+ -1.12500E+00 -7.75770E-02
+ -1.10000E+00 -7.24943E-02
+ -1.07500E+00 -6.74116E-02
+ -1.05000E+00 -6.24637E-02
+ -1.02500E+00 -5.75158E-02
+ -1.00000E+00 -5.27315E-02
+ -9.75000E-01 -4.79472E-02
+ -9.50000E-01 -4.33648E-02
+ -9.25000E-01 -3.87824E-02
+ -9.00000E-01 -3.44120E-02
+ -8.75000E-01 -3.01295E-02
+ -8.50000E-01 -2.60786E-02
+ -8.25000E-01 -2.21425E-02
+ -8.00000E-01 -1.85164E-02
+ -7.75000E-01 -1.50439E-02
+ -7.50000E-01 -1.19828E-02
+ -7.25000E-01 -9.12543E-03
+ -7.00000E-01 -6.77905E-03
+ -6.75000E-01 -4.68580E-03
+ -6.50000E-01 -3.13759E-03
+ -6.25000E-01 -1.85938E-03
+ -6.00000E-01 -1.03980E-03
+ -5.75000E-01 -4.47412E-04
+ -5.50000E-01 -1.18418E-04
+ -5.25000E-01 +0.00000E+00
+ -5.00000E-01 +0.00000E+00
+ -4.75000E-01 +0.00000E+00
+ +6.60000E+00 +0.00000E+00
+ +7.60000E+00 +0.00000E+00
+ ] )
.ENDS GND_CLAMP
*
* Power Clamp IV;
.SUBCKT POWER_CLAMP PAD_OUT PC_OUT PC_IN PAD_IN
* Connections       Out+ Out In+ In
APwrClamp %vd(PC_IN,PAD_IN) %vd(PAD_OUT,PC_OUT) transfer
.model transfer pwl2(
+ xy_array = [
+ -4.30000E+00 +6.51032E-02
+ -3.30000E+00 +6.51032E-02
+ -3.27500E+00 +6.39939E-02
+ -3.25000E+00 +6.31960E-02
+ -3.22500E+00 +6.23980E-02
+ -3.17500E+00 +6.08022E-02
+ -3.15000E+00 +6.00087E-02
+ -3.10000E+00 +5.84217E-02
+ -3.07500E+00 +5.76282E-02
+ -3.02500E+00 +5.60464E-02
+ -2.97500E+00 +5.44646E-02
+ -2.95000E+00 +5.36767E-02
+ -2.90000E+00 +5.21009E-02
+ -2.85000E+00 +5.05251E-02
+ -2.77500E+00 +4.81737E-02
+ -2.67500E+00 +4.50384E-02
+ -2.65000E+00 +4.42592E-02
+ -2.57500E+00 +4.19214E-02
+ -2.55000E+00 +4.11460E-02
+ -2.47500E+00 +3.88198E-02
+ -2.42500E+00 +3.72779E-02
+ -2.40000E+00 +3.65070E-02
+ -2.37500E+00 +3.57361E-02
+ -2.30000E+00 +3.34393E-02
+ -2.27500E+00 +3.26737E-02
+ -2.22500E+00 +3.11552E-02
+ -2.20000E+00 +3.03959E-02
+ -2.17500E+00 +2.96366E-02
+ -2.15000E+00 +2.88831E-02
+ -2.12500E+00 +2.81297E-02
+ -2.10000E+00 +2.73812E-02
+ -2.07500E+00 +2.66327E-02
+ -2.05000E+00 +2.58842E-02
+ -2.02500E+00 +2.51428E-02
+ -2.00000E+00 +2.44014E-02
+ -1.97500E+00 +2.36599E-02
+ -1.92500E+00 +2.21918E-02
+ -1.87500E+00 +2.07351E-02
+ -1.85000E+00 +2.00142E-02
+ -1.82500E+00 +1.92932E-02
+ -1.80000E+00 +1.85795E-02
+ -1.77500E+00 +1.78658E-02
+ -1.75000E+00 +1.71597E-02
+ -1.72500E+00 +1.64598E-02
+ -1.70000E+00 +1.57598E-02
+ -1.67500E+00 +1.50699E-02
+ -1.65000E+00 +1.43800E-02
+ -1.62500E+00 +1.37019E-02
+ -1.60000E+00 +1.30238E-02
+ -1.57500E+00 +1.23535E-02
+ -1.55000E+00 +1.16932E-02
+ -1.52500E+00 +1.10378E-02
+ -1.50000E+00 +1.03953E-02
+ -1.47500E+00 +9.75271E-03
+ -1.45000E+00 +9.12856E-03
+ -1.42500E+00 +8.50442E-03
+ -1.40000E+00 +7.90038E-03
+ -1.37500E+00 +7.29635E-03
+ -1.35000E+00 +6.71638E-03
+ -1.32500E+00 +6.13640E-03
+ -1.30000E+00 +5.57882E-03
+ -1.27500E+00 +5.03030E-03
+ -1.25000E+00 +4.50407E-03
+ -1.22500E+00 +3.98888E-03
+ -1.20000E+00 +3.49920E-03
+ -1.17500E+00 +3.02216E-03
+ -1.15000E+00 +2.57684E-03
+ -1.12500E+00 +2.14724E-03
+ -1.10000E+00 +1.75594E-03
+ -1.07500E+00 +1.38359E-03
+ -1.05000E+00 +1.05986E-03
+ -1.02500E+00 +7.60215E-04
+ -1.00000E+00 +5.17627E-04
+ -9.75000E-01 +3.03303E-04
+ -9.50000E-01 +1.48340E-04
+ -9.25000E-01 +2.27807E-05
+ -9.00000E-01 +0.00000E+00