| "2015.07rc1" 8634 1443756417 prefer_vt_curves
************************************
** Library generated Thu Oct 22 20:53:31 2015
** The IBIS file was C:\Myproject\PCI\si_lib\ibis\55202_3.ibs
**
** Copyright (c) Signal Integrity Software 2012, All Rights Reserved
************************************
.SUBCKT 55202_3_3V6XX_FF PU_REF PD_REF PAD A PC_REF GC_REF
*
*
* C_comp
CCOMP PAD GC_REF +4.00000E-12 IC=0
*
RA A 0 1Meg
VINIT Vini 0    dc 200n
RETIR ETR  Vini 1G
CETR  ETR  0    1n
BETR  0    ETR  I= Time < 40p ? 0. : 1n
RETIF ETF  Vini 1G
CETF  ETF  0    1n
BETF  0    ETF  I= Time < 40p ? 0. : 1n
RETR ETR 0 R= V(A) > .5 ? 1G  : .02
RETF ETF 0 R= V(A) > .5 ? .02 : 1G
*
* Pull Down Structure;
AKT_PD_R ETR KT_PD_R KT_PD_R_T
AKT_PD_F ETF KT_PD_F KT_PD_F_T
.model KT_PD_R_T pwl2(
+ xy_array = [ 0. .983 10.063p .983 20.126p 1.007 30.189p 1.032 40.252p 1.066 50.315p 1.1 60.377p 1.142 70.44p 1.188 80.503p 1.241 90.566p 1.3 100.629p 1.365 110.692p 1.439
+ 120.755p 1.514 130.818p 1.605 140.881p 1.695 150.943p 1.798 161.006p 1.9 171.069p 2.009 181.132p 2.113 191.195p 2.217 201.258p 2.31 211.321p 2.39
+ 221.384p 2.452 231.447p 2.489 241.509p 2.501 251.572p 2.482 261.635p 2.434 271.698p 2.363 281.761p 2.264 291.824p 2.156 301.887p 2.024 311.95p 1.896
+ 322.013p 1.751 332.075p 1.619 342.138p 1.474 352.201p 1.347 362.264p 1.213 372.327p 1.094 382.39p .974 392.453p .865 402.516p .758 412.579p .66
+ 422.641p .566 432.704p .477 442.767p .394 452.83p .314 462.893p .24 472.956p .167 483.019p .099 493.082p .034 503.145p -.028 513.208p -.087
+ 523.27p -.144 533.333p 0. 100.533n 0. ]  )
.model KT_PD_F_T pwl2(
+ xy_array = [ 0. .282 10.063p .983 20.126p .348 30.189p .417 40.252p .489 50.315p .565 60.377p .646 70.44p .73 80.503p .821 90.566p .915 100.629p 1.016 110.692p 1.124
+ 120.755p 1.237 130.818p 1.361 140.881p 1.487 150.943p 1.624 161.006p 1.766 171.069p 1.911 181.132p 2.07 191.195p 2.214 201.258p 2.371 211.321p 2.51
+ 221.384p 2.639 231.447p 2.752 241.509p 2.824 251.572p 2.88 261.635p 2.881 271.698p 2.862 281.761p 2.794 291.824p 2.7 301.887p 2.584 311.95p 2.452
+ 322.013p 2.313 332.075p 2.173 342.138p 2.04 352.201p 1.904 362.264p 1.787 372.327p 1.671 382.39p 1.574 392.453p 1.482 402.516p 1.401 412.579p 1.332
+ 422.641p 1.265 432.704p 1.214 442.767p 1.163 452.83p 1.124 462.893p 1.088 472.956p 1.06 483.019p 1.037 493.082p 1.001 503.145p 1. 513.208p 1.
+ 523.27p 1. 533.333p 1. 100.533n 1. ] )
*
BPD PAD PD_REF I=
+ V(A) > .5 ? V(PD_Current)*V(KT_PD_R) : V(PD_Current)*V(KT_PD_F)
XPD PD_Current 0 PAD PD_REF PULL_DOWN
*
* Pullup Structure;
AKT_PU_R ETR KT_PU_R KT_PU_R_T
AKT_PU_F ETF KT_PU_F KT_PU_F_T
.model KT_PU_R_T pwl2(
+ xy_array = [ 0. 0. 10.063p 0. 20.126p .302 30.189p .368 40.252p .438 50.315p .511 60.377p .589 70.44p .671 80.503p .759 90.566p .852 100.629p .952 110.692p 1.06
+ 120.755p 1.174 130.818p 1.3 140.881p 1.43 150.943p 1.572 161.006p 1.717 171.069p 1.872 181.132p 2.025 191.195p 2.182 201.258p 2.331 211.321p 2.47
+ 221.384p 2.593 231.447p 2.695 241.509p 2.769 251.572p 2.815 261.635p 2.827 271.698p 2.815 281.761p 2.768 291.824p 2.712 301.887p 2.624 311.95p 2.539
+ 322.013p 2.429 332.075p 2.334 342.138p 2.218 352.201p 2.121 362.264p 2.012 372.327p 1.92 382.39p 1.823 392.453p 1.738 402.516p 1.654 412.579p 1.577
+ 422.641p 1.505 432.704p 1.438 442.767p 1.376 452.83p 1.317 462.893p 1.263 472.956p 1.212 483.019p 1.165 493.082p 1.122 503.145p 1.081 513.208p 1.044
+ 523.27p 1.009 533.333p 1. 100.533n 1. ] )
.model KT_PU_F_T pwl2(
+ xy_array = [ 0. 1. 20.126p 1.104 30.189p 1.147 40.252p 1.195 50.315p 1.246 60.377p 1.303 70.44p 1.362 80.503p 1.429 90.566p 1.498 100.629p 1.574 110.692p 1.657
+ 120.755p 1.743 130.818p 1.843 140.881p 1.939 150.943p 2.047 161.006p 2.158 171.069p 2.269 181.132p 2.393 191.195p 2.494 201.258p 2.607 211.321p 2.695
+ 221.384p 2.768 231.447p 2.82 241.509p 2.825 251.572p 2.812 261.635p 2.738 271.698p 2.647 281.761p 2.503 291.824p 2.34 301.887p 2.156 311.95p 1.962
+ 322.013p 1.767 332.075p 1.572 342.138p 1.391 352.201p 1.209 362.264p 1.049 372.327p .893 382.39p .756 392.453p .627 402.516p .508 412.579p .4
+ 422.641p .297 432.704p .204 442.767p .117 452.83p .027 462.893p -.037 472.956p -.129 483.019p -.189 493.082p -.006 503.145p 0. 513.208p 0.
+ 523.27p 0. 533.333p 0. 100.533n 0. ] )
*
BPU PAD PU_REF I=
+ V(A) > .5 ? V(PU_Current)*V(KT_PU_R) : V(PU_Current)*V(KT_PU_F)
XPU PU_Current 0 PU_REF PAD PULL_UP
*
* Pull Down IV;
.SUBCKT PULL_DOWN PD_Current    REF   PAD   PD_REF
* Connections     Out+ Out In+ In
APullDown %vd(PAD,PD_REF) %vd(PD_Current,REF) transfer
.model transfer pwl2(
+ xy_array = [
+ -4.30000E+00 -3.00000E+00
+ -3.30000E+00 -3.00000E+00
+ -1.20000E+00 -2.30060E-01
+ -1.10000E+00 -1.94790E-01
+ -1.00000E+00 -1.55980E-01
+ -9.00000E-01 -1.24600E-01
+ -8.00000E-01 -1.02320E-01
+ -7.00000E-01 -8.76800E-02
+ -6.00000E-01 -7.53500E-02
+ -5.00000E-01 -6.31400E-02
+ -4.00000E-01 -5.08300E-02
+ -3.00000E-01 -3.83900E-02
+ -2.00000E-01 -2.58600E-02
+ -1.00000E-01 -1.33700E-02
+ +0.00000E+00 -1.01000E-03
+ +1.00000E-01 +1.09570E-02
+ +2.00000E-01 +2.26570E-02
+ +3.00000E-01 +3.38280E-02
+ +4.00000E-01 +4.43580E-02
+ +5.00000E-01 +5.41220E-02
+ +6.00000E-01 +6.30330E-02
+ +7.00000E-01 +7.10550E-02
+ +8.00000E-01 +7.81300E-02
+ +9.00000E-01 +8.42660E-02
+ +1.00000E+00 +8.94780E-02
+ +1.10000E+00 +9.38110E-02
+ +1.20000E+00 +9.73430E-02
+ +1.30000E+00 +1.00156E-01
+ +1.40000E+00 +1.02340E-01
+ +1.50000E+00 +1.04023E-01
+ +1.60000E+00 +1.05277E-01
+ +1.70000E+00 +1.06217E-01
+ +1.80000E+00 +1.06918E-01
+ +1.90000E+00 +1.07453E-01
+ +2.00000E+00 +1.07857E-01
+ +2.10000E+00 +1.08164E-01
+ +2.20000E+00 +1.08407E-01
+ +2.30000E+00 +1.08600E-01
+ +2.40000E+00 +1.08750E-01
+ +2.50000E+00 +1.08867E-01
+ +2.60000E+00 +1.08950E-01
+ +2.70000E+00 +1.09028E-01
+ +2.80000E+00 +1.09071E-01
+ +2.90000E+00 +1.09101E-01
+ +3.00000E+00 +1.09112E-01
+ +3.10000E+00 +1.09119E-01
+ +3.20000E+00 +1.09119E-01
+ +3.30000E+00 +1.09119E-01
+ +3.40000E+00 +1.09119E-01
+ +3.50000E+00 +1.09119E-01
+ +3.60000E+00 +1.09119E-01
+ +3.70000E+00 +1.09119E-01
+ +3.80000E+00 +1.09119E-01
+ +3.90000E+00 +1.09119E-01
+ +4.00000E+00 +1.11804E-01
+ +4.10000E+00 +1.24685E-01
+ +4.20000E+00 +1.41836E-01
+ +4.30000E+00 +1.64593E-01
+ +4.40000E+00 +1.95917E-01
+ +4.50000E+00 +2.30342E-01
+ +6.60000E+00 +3.00000E+00
+ +7.60000E+00 +3.00000E+00
+ ] )
.ENDS PULL_DOWN
*
* Pull Up IV;
.SUBCKT PULL_UP PU_Current REF PU_REF PAD
* Connections   Out+ Out In+ In
APullUp %vd(PU_REF,PAD) %vd(PU_Current,REF) transfer
.model transfer pwl2(
+ xy_array = [
+ -4.30000E+00 +3.00000E+00
+ -3.30000E+00 +3.00000E+00
+ -1.30000E+00 +2.30323E-01
+ -1.20000E+00 +1.90297E-01
+ -1.10000E+00 +1.55986E-01
+ -1.00000E+00 +1.29270E-01
+ -9.00000E-01 +1.07317E-01
+ -8.00000E-01 +8.62800E-02
+ -7.00000E-01 +7.12850E-02
+ -6.00000E-01 +6.03340E-02
+ -5.00000E-01 +4.99860E-02
+ -4.00000E-01 +3.98410E-02
+ -3.00000E-01 +2.99240E-02
+ -2.00000E-01 +2.02270E-02
+ -1.00000E-01 +1.07790E-02
+ +0.00000E+00 +1.60800E-03
+ +1.00000E-01 -7.27000E-03
+ +2.00000E-01 -1.58200E-02
+ +3.00000E-01 -2.40100E-02
+ +4.00000E-01 -3.18600E-02
+ +5.00000E-01 -3.92800E-02
+ +6.00000E-01 -4.63000E-02
+ +7.00000E-01 -5.29000E-02
+ +8.00000E-01 -5.90700E-02
+ +9.00000E-01 -6.48000E-02
+ +1.00000E+00 -7.00900E-02
+ +1.10000E+00 -7.49600E-02
+ +1.20000E+00 -7.93900E-02
+ +1.30000E+00 -8.34200E-02
+ +1.40000E+00 -8.70500E-02
+ +1.50000E+00 -9.03100E-02
+ +1.60000E+00 -9.32200E-02
+ +1.70000E+00 -9.58000E-02
+ +1.80000E+00 -9.81000E-02
+ +1.90000E+00 -1.00140E-01
+ +2.00000E+00 -1.01950E-01
+ +2.10000E+00 -1.03550E-01
+ +2.20000E+00 -1.05000E-01
+ +2.30000E+00 -1.06300E-01
+ +2.40000E+00 -1.07490E-01
+ +2.50000E+00 -1.08580E-01
+ +2.60000E+00 -1.09580E-01
+ +2.70000E+00 -1.10510E-01
+ +2.80000E+00 -1.11380E-01
+ +2.90000E+00 -1.12180E-01
+ +3.00000E+00 -1.12950E-01
+ +3.10000E+00 -1.13680E-01
+ +3.20000E+00 -1.14360E-01
+ +3.30000E+00 -1.15000E-01
+ +3.40000E+00 -1.15620E-01
+ +3.50000E+00 -1.16210E-01
+ +3.60000E+00 -1.16780E-01
+ +3.70000E+00 -1.17320E-01
+ +3.80000E+00 -1.17910E-01
+ +3.90000E+00 -1.19340E-01
+ +4.00000E+00 -1.23860E-01
+ +4.10000E+00 -1.38560E-01
+ +4.20000E+00 -1.66890E-01
+ +4.30000E+00 -2.03940E-01
+ +4.40000E+00 -2.30070E-01
+ +6.60000E+00 -3.00000E+00
+ +7.60000E+00 -3.00000E+00
+ ] )
.ENDS PULL_UP
*
.ENDS 55202_3_3V6XX_FF
*************************************
************************************
** Library generated Thu Oct 22 20:53:31 2015
** The IBIS file was C:\Myproject\PCI\si_lib\ibis\55202_3.ibs
**
** Copyright (c) Signal Integrity Software 2012, All Rights Reserved
************************************
.SUBCKT 55202_3_3V6XX_TT PU_REF PD_REF PAD A PC_REF GC_REF
*
*
* C_comp
CCOMP PAD GC_REF +5.00000E-12 IC=0
*
RA A 0 1Meg
VINIT Vini 0    dc 200n
RETIR ETR  Vini 1G
CETR  ETR  0    1n
BETR  0    ETR  I= Time < 40p ? 0. : 1n
RETIF ETF  Vini 1G
CETF  ETF  0    1n
BETF  0    ETF  I= Time < 40p ? 0. : 1n
RETR ETR 0 R= V(A) > .5 ? 1G  : .02
RETF ETF 0 R= V(A) > .5 ? .02 : 1G
*
* Pull Down Structure;
AKT_PD_R ETR KT_PD_R KT_PD_R_T
AKT_PD_F ETF KT_PD_F KT_PD_F_T
.model KT_PD_R_T pwl2(
+ xy_array = [ 0. .973 10p .973 20p .99 30p 1.01 40p 1.033 50p 1.059 60p 1.088 70p 1.12 80p 1.156 90p 1.194 100p 1.237 110p 1.282
+ 120p 1.334 130p 1.385 140p 1.443 150p 1.502 160p 1.564 170p 1.631 180p 1.693 190p 1.766 200p 1.825 210p 1.892
+ 220p 1.948 230p 1.999 240p 2.044 250p 2.071 260p 2.093 280p 2.081 290p 2.056 300p 2.008 310p 1.955 320p 1.882
+ 330p 1.804 340p 1.716 350p 1.622 360p 1.527 370p 1.423 380p 1.325 390p 1.222 400p 1.125 410p 1.028 420p .935
+ 430p .844 440p .758 450p .675 460p .594 470p .519 480p .444 490p .375 500p .307 510p .243 520p .181
+ 530p .121 540p .065 550p .01 560p -.043 570p -.094 580p -.143 590p -.191 600p 0. 100.6n 0. ]  )
.model KT_PD_F_T pwl2(
+ xy_array = [ 0. .32 10p .973 20p .377 30p .435 40p .497 50p .56 60p .626 70p .695 80p .768 90p .844 100p .924 110p 1.006
+ 120p 1.094 130p 1.185 140p 1.281 150p 1.38 160p 1.484 170p 1.591 180p 1.701 190p 1.813 200p 1.925 210p 2.036
+ 220p 2.143 230p 2.241 240p 2.332 250p 2.408 260p 2.471 270p 2.51 280p 2.537 290p 2.529 300p 2.512 310p 2.464
+ 320p 2.409 330p 2.331 340p 2.249 350p 2.155 360p 2.062 370p 1.965 380p 1.872 390p 1.781 400p 1.694 410p 1.613
+ 420p 1.537 430p 1.468 440p 1.403 450p 1.346 460p 1.292 470p 1.244 480p 1.202 490p 1.163 500p 1.131 510p 1.099
+ 520p 1.078 530p 1.053 540p 1.016 550p 1. 580p 1. 590p 1. 600p 1. 100.6n 1. ] )
*
BPD PAD PD_REF I=
+ V(A) > .5 ? V(PD_Current)*V(KT_PD_R) : V(PD_Current)*V(KT_PD_F)
XPD PD_Current 0 PAD PD_REF PULL_DOWN
*
* Pullup Structure;
AKT_PU_R ETR KT_PU_R KT_PU_R_T
AKT_PU_F ETF KT_PU_F KT_PU_F_T
.model KT_PU_R_T pwl2(
+ xy_array = [ 0. 0. 10p 0. 20p .314 30p .368 40p .425 50p .484 60p .545 70p .61 80p .676 90p .746 100p .82 110p .897
+ 120p .98 130p 1.064 140p 1.156 150p 1.248 160p 1.347 170p 1.45 180p 1.552 190p 1.665 200p 1.767 210p 1.879
+ 220p 1.982 230p 2.083 240p 2.179 250p 2.258 260p 2.334 270p 2.388 280p 2.428 290p 2.456 300p 2.459 310p 2.455
+ 320p 2.428 330p 2.393 340p 2.346 350p 2.289 360p 2.229 370p 2.158 380p 2.089 390p 2.014 400p 1.943 410p 1.87
+ 420p 1.8 430p 1.731 440p 1.666 450p 1.603 460p 1.542 470p 1.486 480p 1.43 490p 1.38 500p 1.329 510p 1.285
+ 520p 1.24 530p 1.199 540p 1.161 550p 1.124 560p 1.091 570p 1.057 580p 1.027 590p .998 600p 1. 100.6n 1. ] )
.model KT_PU_F_T pwl2(
+ xy_array = [ 0. 1. 20p 1.099 30p 1.135 40p 1.175 50p 1.216 60p 1.261 70p 1.307 80p 1.359 90p 1.411 100p 1.47 110p 1.528
+ 120p 1.594 130p 1.66 140p 1.732 150p 1.804 160p 1.882 170p 1.959 180p 2.039 190p 2.117 200p 2.193 210p 2.265
+ 220p 2.329 230p 2.381 240p 2.421 250p 2.442 260p 2.448 270p 2.425 280p 2.39 290p 2.316 300p 2.235 310p 2.123
+ 320p 2.006 330p 1.868 340p 1.73 350p 1.582 360p 1.439 370p 1.296 380p 1.158 390p 1.026 400p .899 410p .781
+ 420p .668 430p .564 440p .463 450p .372 460p .283 470p .201 480p .122 490p .052 500p -.028 510p -.079
+ 520p -.163 530p -.209 540p -.08 550p 0. 580p 0. 590p 0. 600p 0. 100.6n 0. ] )
*
BPU PAD PU_REF I=
+ V(A) > .5 ? V(PU_Current)*V(KT_PU_R) : V(PU_Current)*V(KT_PU_F)
XPU PU_Current 0 PU_REF PAD PULL_UP
*
* Pull Down IV;
.SUBCKT PULL_DOWN PD_Current    REF   PAD   PD_REF
* Connections     Out+ Out In+ In
APullDown %vd(PAD,PD_REF) %vd(PD_Current,REF) transfer
.model transfer pwl2(
+ xy_array = [
+ -4.30000E+00 -3.00000E+00
+ -3.30000E+00 -3.00000E+00
+ -1.20000E+00 -2.00050E-01
+ -1.10000E+00 -1.69390E-01
+ -1.00000E+00 -1.35630E-01
+ -9.00000E-01 -1.08350E-01
+ -8.00000E-01 -8.89800E-02
+ -7.00000E-01 -7.62400E-02
+ -6.00000E-01 -6.55200E-02
+ -5.00000E-01 -5.49100E-02
+ -4.00000E-01 -4.42000E-02
+ -3.00000E-01 -3.33800E-02
+ -2.00000E-01 -2.24900E-02
+ -1.00000E-01 -1.16200E-02
+ +0.00000E+00 -8.80000E-04
+ +1.00000E-01 +9.52800E-03
+ +2.00000E-01 +1.97020E-02
+ +3.00000E-01 +2.94160E-02
+ +4.00000E-01 +3.85720E-02
+ +5.00000E-01 +4.70630E-02
+ +6.00000E-01 +5.48110E-02
+ +7.00000E-01 +6.17870E-02
+ +8.00000E-01 +6.79390E-02
+ +9.00000E-01 +7.32750E-02
+ +1.00000E+00 +7.78070E-02
+ +1.10000E+00 +8.15750E-02
+ +1.20000E+00 +8.46460E-02
+ +1.30000E+00 +8.70920E-02
+ +1.40000E+00 +8.89910E-02
+ +1.50000E+00 +9.04550E-02
+ +1.60000E+00 +9.15450E-02
+ +1.70000E+00 +9.23630E-02
+ +1.80000E+00 +9.29720E-02
+ +1.90000E+00 +9.34370E-02
+ +2.00000E+00 +9.37890E-02
+ +2.10000E+00 +9.40560E-02
+ +2.20000E+00 +9.42670E-02
+ +2.30000E+00 +9.44350E-02
+ +2.40000E+00 +9.45650E-02
+ +2.50000E+00 +9.46670E-02
+ +2.60000E+00 +9.47390E-02
+ +2.70000E+00 +9.48070E-02
+ +2.80000E+00 +9.48440E-02
+ +2.90000E+00 +9.48700E-02
+ +3.00000E+00 +9.48800E-02
+ +3.10000E+00 +9.48860E-02
+ +3.20000E+00 +9.48860E-02
+ +3.30000E+00 +9.48860E-02
+ +3.40000E+00 +9.48860E-02
+ +3.50000E+00 +9.48860E-02
+ +3.60000E+00 +9.48860E-02
+ +3.70000E+00 +9.48860E-02
+ +3.80000E+00 +9.48860E-02
+ +3.90000E+00 +9.48860E-02
+ +4.00000E+00 +9.72210E-02
+ +4.10000E+00 +1.08422E-01
+ +4.20000E+00 +1.23336E-01
+ +4.30000E+00 +1.43124E-01
+ +4.40000E+00 +1.70363E-01
+ +4.50000E+00 +2.00297E-01
+ +6.60000E+00 +3.00000E+00
+ +7.60000E+00 +3.00000E+00
+ ] )
.ENDS PULL_DOWN
*
* Pull Up IV;
.SUBCKT PULL_UP PU_Current REF PU_REF PAD
* Connections   Out+ Out In+ In
APullUp %vd(PU_REF,PAD) %vd(PU_Current,REF) transfer
.model transfer pwl2(
+ xy_array = [
+ -4.30000E+00 +3.00000E+00
+ -3.30000E+00 +3.00000E+00
+ -1.30000E+00 +2.00281E-01
+ -1.20000E+00 +1.65476E-01
+ -1.10000E+00 +1.35640E-01
+ -1.00000E+00 +1.12409E-01
+ -9.00000E-01 +9.33190E-02
+ -8.00000E-01 +7.50260E-02
+ -7.00000E-01 +6.19870E-02
+ -6.00000E-01 +5.24640E-02
+ -5.00000E-01 +4.34660E-02
+ -4.00000E-01 +3.46440E-02
+ -3.00000E-01 +2.60210E-02
+ -2.00000E-01 +1.75890E-02
+ -1.00000E-01 +9.37300E-03
+ +0.00000E+00 +1.39800E-03
+ +1.00000E-01 -6.32000E-03
+ +2.00000E-01 -1.37600E-02
+ +3.00000E-01 -2.08800E-02
+ +4.00000E-01 -2.77000E-02
+ +5.00000E-01 -3.41600E-02
+ +6.00000E-01 -4.02600E-02
+ +7.00000E-01 -4.60000E-02
+ +8.00000E-01 -5.13600E-02
+ +9.00000E-01 -5.63500E-02
+ +1.00000E+00 -6.09500E-02
+ +1.10000E+00 -6.51800E-02
+ +1.20000E+00 -6.90300E-02
+ +1.30000E+00 -7.25400E-02
+ +1.40000E+00 -7.57000E-02
+ +1.50000E+00 -7.85300E-02
+ +1.60000E+00 -8.10600E-02
+ +1.70000E+00 -8.33100E-02
+ +1.80000E+00 -8.53000E-02
+ +1.90000E+00 -8.70700E-02
+ +2.00000E+00 -8.86500E-02
+ +2.10000E+00 -9.00400E-02
+ +2.20000E+00 -9.13000E-02
+ +2.30000E+00 -9.24300E-02
+ +2.40000E+00 -9.34700E-02
+ +2.50000E+00 -9.44200E-02
+ +2.60000E+00 -9.52900E-02
+ +2.70000E+00 -9.61000E-02
+ +2.80000E+00 -9.68500E-02
+ +2.90000E+00 -9.75500E-02
+ +3.00000E+00 -9.82200E-02
+ +3.10000E+00 -9.88500E-02
+ +3.20000E+00 -9.94400E-02
+ +3.30000E+00 -1.00000E-01
+ +3.40000E+00 -1.00540E-01
+ +3.50000E+00 -1.01050E-01
+ +3.60000E+00 -1.01550E-01
+ +3.70000E+00 -1.02010E-01
+ +3.80000E+00 -1.02530E-01
+ +3.90000E+00 -1.03770E-01
+ +4.00000E+00 -1.07710E-01
+ +4.10000E+00 -1.20480E-01
+ +4.20000E+00 -1.45120E-01
+ +4.30000E+00 -1.77340E-01
+ +4.40000E+00 -2.00060E-01
+ +6.60000E+00 -3.00000E+00
+ +7.60000E+00 -3.00000E+00
+ ] )
.ENDS PULL_UP
*
.ENDS 55202_3_3V6XX_TT
*************************************
************************************
** Library generated Thu Oct 22 20:53:31 2015
** The IBIS file was C:\Myproject\PCI\si_lib\ibis\55202_3.ibs
**
** Copyright (c) Signal Integrity Software 2012, All Rights Reserved
************************************
.SUBCKT 55202_3_3V6XX_SS PU_REF PD_REF PAD A PC_REF GC_REF
*
*
* C_comp
CCOMP PAD GC_REF +6.00000E-12 IC=0
*
RA A 0 1Meg
VINIT Vini 0    dc 200n
RETIR ETR  Vini 1G
CETR  ETR  0    1n
BETR  0    ETR  I= Time < 40p ? 0. : 1n
RETIF ETF  Vini 1G
CETF  ETF  0    1n
BETF  0    ETF  I= Time < 40p ? 0. : 1n
RETR ETR 0 R= V(A) > .5 ? 1G  : .02
RETF ETF 0 R= V(A) > .5 ? .02 : 1G
*
* Pull Down Structure;
AKT_PD_R ETR KT_PD_R KT_PD_R_T
AKT_PD_F ETF KT_PD_F KT_PD_F_T
.model KT_PD_R_T pwl2(
+ xy_array = [ 0. .957 10.101p .957 20.202p .972 30.303p .987 40.404p 1.004 50.505p 1.025 60.606p 1.045 70.707p 1.068 80.808p 1.094 90.909p 1.119 101.01p 1.149 111.111p 1.18
+ 121.212p 1.21 131.313p 1.246 141.414p 1.283 151.515p 1.318 161.616p 1.358 171.717p 1.398 181.818p 1.438 191.919p 1.478 202.02p 1.52 212.121p 1.558
+ 222.222p 1.594 232.323p 1.632 242.424p 1.661 252.525p 1.687 262.626p 1.713 272.727p 1.724 282.828p 1.733 292.929p 1.739 303.03p 1.725 313.131p 1.712
+ 323.232p 1.69 333.333p 1.651 343.434p 1.615 353.535p 1.566 363.636p 1.508 373.737p 1.454 383.838p 1.385 393.939p 1.315 404.04p 1.248 414.141p 1.171
+ 424.242p 1.097 434.343p 1.024 444.445p .947 454.546p .876 464.646p .802 474.748p .73 484.849p .662 494.95p .594 505.051p .529 515.152p .465
+ 525.253p .403 535.354p .344 545.455p .286 555.556p .231 565.657p .177 575.758p .125 585.859p .075 595.96p .026 606.061p -.022 616.162p -.067
+ 626.263p -.112 636.364p -.155 646.465p -.196 656.566p -.237 666.667p 0. 100.667n 0. ]  )
.model KT_PD_F_T pwl2(
+ xy_array = [ 0. .364 10.101p .957 20.202p .414 30.303p .465 40.404p .518 50.505p .572 60.606p .628 70.707p .687 80.808p .748 90.909p .812 101.01p .876 111.111p .943
+ 121.212p 1.013 131.313p 1.086 141.414p 1.161 151.515p 1.238 161.616p 1.318 171.717p 1.398 181.818p 1.482 191.919p 1.563 202.02p 1.649 212.121p 1.73
+ 222.222p 1.81 232.323p 1.892 242.424p 1.959 252.525p 2.033 262.626p 2.087 272.727p 2.138 282.828p 2.179 292.929p 2.202 303.03p 2.226 313.131p 2.221
+ 323.232p 2.214 333.333p 2.193 343.434p 2.157 353.535p 2.121 363.636p 2.065 373.737p 2.012 383.838p 1.951 393.939p 1.887 404.04p 1.824 414.141p 1.758
+ 424.242p 1.694 434.343p 1.632 444.445p 1.571 454.546p 1.513 464.646p 1.46 474.748p 1.407 484.849p 1.361 494.95p 1.315 505.051p 1.274 515.152p 1.237
+ 525.253p 1.2 535.354p 1.172 545.455p 1.142 555.556p 1.116 565.657p 1.095 575.758p 1.073 585.859p 1.047 595.96p 1. 646.465p 1. 656.566p 1.
+ 666.667p 1. 100.667n 1. ] )
*
BPD PAD PD_REF I=
+ V(A) > .5 ? V(PD_Current)*V(KT_PD_R) : V(PD_Current)*V(KT_PD_F)
XPD PD_Current 0 PAD PD_REF PULL_DOWN
*
* Pullup Structure;
AKT_PU_R ETR KT_PU_R KT_PU_R_T
AKT_PU_F ETF KT_PU_F KT_PU_F_T
.model KT_PU_R_T pwl2(
+ xy_array = [ 0. 0. 10.101p 0. 20.202p .333 30.303p .379 40.404p .426 50.505p .476 60.606p .526 70.707p .577 80.808p .632 90.909p .686 101.01p .744 111.111p .804
+ 121.212p .865 131.313p .929 141.414p .996 151.515p 1.063 161.616p 1.133 171.717p 1.207 181.818p 1.28 191.919p 1.355 202.02p 1.434 212.121p 1.508
+ 222.222p 1.584 232.323p 1.663 242.424p 1.733 252.525p 1.802 262.626p 1.873 272.727p 1.928 282.828p 1.983 292.929p 2.035 303.03p 2.067 313.131p 2.101
+ 323.232p 2.124 333.333p 2.128 343.434p 2.137 353.535p 2.129 363.636p 2.11 373.737p 2.095 383.838p 2.061 393.939p 2.024 404.04p 1.989 414.141p 1.941
+ 424.242p 1.896 434.343p 1.85 444.445p 1.797 454.546p 1.749 464.646p 1.698 474.748p 1.647 484.849p 1.599 494.95p 1.551 505.051p 1.503 515.152p 1.459
+ 525.253p 1.415 535.354p 1.372 545.455p 1.332 555.556p 1.294 565.657p 1.256 575.758p 1.22 585.859p 1.186 595.96p 1.153 606.061p 1.122 616.162p 1.094
+ 626.263p 1.064 636.364p 1.038 646.465p 1.013 656.566p .988 666.667p 1. 100.667n 1. ] )
.model KT_PU_F_T pwl2(
+ xy_array = [ 0. 1. 20.202p 1.098 30.303p 1.128 40.404p 1.16 50.505p 1.195 60.606p 1.23 70.707p 1.27 80.808p 1.31 90.909p 1.353 101.01p 1.396 111.111p 1.441
+ 121.212p 1.49 131.313p 1.539 141.414p 1.59 151.515p 1.644 161.616p 1.698 171.717p 1.75 181.818p 1.806 191.919p 1.856 202.02p 1.91 212.121p 1.956
+ 222.222p 1.999 232.323p 2.04 242.424p 2.064 252.525p 2.094 262.626p 2.098 282.828p 2.087 292.929p 2.052 303.03p 2.022 313.131p 1.958 323.232p 1.894
+ 333.333p 1.817 343.434p 1.723 353.535p 1.634 363.636p 1.526 373.737p 1.422 383.838p 1.313 393.939p 1.202 404.04p 1.097 414.141p .988 424.242p .885
+ 434.343p .786 444.445p .688 454.546p .596 464.646p .508 474.748p .423 484.849p .344 494.95p .266 505.051p .194 515.152p .124 525.253p .056
+ 535.354p -.006 545.455p -.07 555.556p -.125 565.657p -.187 575.758p -.238 585.859p -.21 595.96p 0. 646.465p 0. 656.566p 0. 666.667p 0. 100.667n 0. ] )
*
BPU PAD PU_REF I=
+ V(A) > .5 ? V(PU_Current)*V(KT_PU_R) : V(PU_Current)*V(KT_PU_F)
XPU PU_Current 0 PU_REF PAD PULL_UP
*
* Pull Down IV;
.SUBCKT PULL_DOWN PD_Current    REF   PAD   PD_REF
* Connections     Out+ Out In+ In
APullDown %vd(PAD,PD_REF) %vd(PD_Current,REF) transfer
.model transfer pwl2(
+ xy_array = [
+ -4.30000E+00 -3.00000E+00
+ -3.30000E+00 -3.00000E+00
+ -1.20000E+00 -1.70040E-01
+ -1.10000E+00 -1.43980E-01
+ -1.00000E+00 -1.15290E-01
+ -9.00000E-01 -9.21000E-02
+ -8.00000E-01 -7.56300E-02
+ -7.00000E-01 -6.48000E-02
+ -6.00000E-01 -5.57000E-02
+ -5.00000E-01 -4.66700E-02
+ -4.00000E-01 -3.75700E-02
+ -3.00000E-01 -2.83800E-02
+ -2.00000E-01 -1.91200E-02
+ -1.00000E-01 -9.88000E-03
+ +0.00000E+00 -7.40000E-04
+ +1.00000E-01 +8.09900E-03
+ +2.00000E-01 +1.67470E-02
+ +3.00000E-01 +2.50040E-02
+ +4.00000E-01 +3.27860E-02
+ +5.00000E-01 +4.00040E-02
+ +6.00000E-01 +4.65890E-02
+ +7.00000E-01 +5.25190E-02
+ +8.00000E-01 +5.77480E-02
+ +9.00000E-01 +6.22840E-02
+ +1.00000E+00 +6.61360E-02
+ +1.10000E+00 +6.93390E-02
+ +1.20000E+00 +7.19490E-02
+ +1.30000E+00 +7.40280E-02
+ +1.40000E+00 +7.56420E-02
+ +1.50000E+00 +7.68870E-02
+ +1.60000E+00 +7.78130E-02
+ +1.70000E+00 +7.85090E-02
+ +1.80000E+00 +7.90260E-02
+ +1.90000E+00 +7.94210E-02
+ +2.00000E+00 +7.97210E-02
+ +2.10000E+00 +7.99480E-02
+ +2.20000E+00 +8.01270E-02
+ +2.30000E+00 +8.02700E-02
+ +2.40000E+00 +8.03800E-02
+ +2.50000E+00 +8.04670E-02
+ +2.60000E+00 +8.05280E-02
+ +2.70000E+00 +8.05860E-02
+ +2.80000E+00 +8.06170E-02
+ +2.90000E+00 +8.06400E-02
+ +3.00000E+00 +8.06480E-02
+ +3.10000E+00 +8.06530E-02
+ +3.20000E+00 +8.06530E-02
+ +3.30000E+00 +8.06530E-02
+ +3.40000E+00 +8.06530E-02
+ +3.50000E+00 +8.06530E-02
+ +3.60000E+00 +8.06530E-02
+ +3.70000E+00 +8.06530E-02
+ +3.80000E+00 +8.06530E-02
+ +3.90000E+00 +8.06530E-02
+ +4.00000E+00 +8.26380E-02
+ +4.10000E+00 +9.21590E-02
+ +4.20000E+00 +1.04836E-01
+ +4.30000E+00 +1.21655E-01
+ +4.40000E+00 +1.44809E-01
+ +4.50000E+00 +1.70252E-01
+ +6.60000E+00 +3.00000E+00
+ +7.60000E+00 +3.00000E+00
+ ] )
.ENDS PULL_DOWN
*
* Pull Up IV;
.SUBCKT PULL_UP PU_Current REF PU_REF PAD
* Connections   Out+ Out In+ In
APullUp %vd(PU_REF,PAD) %vd(PU_Current,REF) transfer
.model transfer pwl2(
+ xy_array = [
+ -4.30000E+00 +3.00000E+00
+ -3.30000E+00 +3.00000E+00
+ -1.30000E+00 +1.70239E-01
+ -1.20000E+00 +1.40655E-01
+ -1.10000E+00 +1.15294E-01
+ -1.00000E+00 +9.55480E-02
+ -9.00000E-01 +7.93210E-02
+ -8.00000E-01 +6.37720E-02
+ -7.00000E-01 +5.26890E-02
+ -6.00000E-01 +4.45940E-02
+ -5.00000E-01 +3.69460E-02
+ -4.00000E-01 +2.94470E-02
+ -3.00000E-01 +2.21180E-02
+ -2.00000E-01 +1.49510E-02
+ -1.00000E-01 +7.96700E-03
+ +0.00000E+00 +1.18800E-03
+ +1.00000E-01 -5.38000E-03
+ +2.00000E-01 -1.16900E-02
+ +3.00000E-01 -1.77500E-02
+ +4.00000E-01 -2.35500E-02
+ +5.00000E-01 -2.90300E-02
+ +6.00000E-01 -3.42200E-02
+ +7.00000E-01 -3.91000E-02
+ +8.00000E-01 -4.36600E-02
+ +9.00000E-01 -4.78900E-02
+ +1.00000E+00 -5.18100E-02
+ +1.10000E+00 -5.54100E-02
+ +1.20000E+00 -5.86800E-02
+ +1.30000E+00 -6.16600E-02
+ +1.40000E+00 -6.43400E-02
+ +1.50000E+00 -6.67500E-02
+ +1.60000E+00 -6.89000E-02
+ +1.70000E+00 -7.08100E-02
+ +1.80000E+00 -7.25100E-02
+ +1.90000E+00 -7.40100E-02
+ +2.00000E+00 -7.53500E-02
+ +2.10000E+00 -7.65400E-02
+ +2.20000E+00 -7.76100E-02
+ +2.30000E+00 -7.85700E-02
+ +2.40000E+00 -7.94500E-02
+ +2.50000E+00 -8.02500E-02
+ +2.60000E+00 -8.09900E-02
+ +2.70000E+00 -8.16800E-02
+ +2.80000E+00 -8.23200E-02
+ +2.90000E+00 -8.29200E-02
+ +3.00000E+00 -8.34800E-02
+ +3.10000E+00 -8.40200E-02
+ +3.20000E+00 -8.45300E-02
+ +3.30000E+00 -8.50000E-02
+ +3.40000E+00 -8.54600E-02
+ +3.50000E+00 -8.58900E-02
+ +3.60000E+00 -8.63100E-02
+ +3.70000E+00 -8.67100E-02
+ +3.80000E+00 -8.71500E-02
+ +3.90000E+00 -8.82000E-02
+ +4.00000E+00 -9.15500E-02
+ +4.10000E+00 -1.02410E-01
+ +4.20000E+00 -1.23350E-01
+ +4.30000E+00 -1.50740E-01
+ +4.40000E+00 -1.70050E-01
+ +6.60000E+00 -3.00000E+00
+ +7.60000E+00 -3.00000E+00
+ ] )
.ENDS PULL_UP
*
.ENDS 55202_3_3V6XX_SS
*************************************
