| "2015.07rc1" 153346 1444359847 prefer_vt_curves
************************************
** Library generated Thu Oct 08 20:04:36 2015
** The IBIS file was C:\Myproject\chapter9\si_lib\ibis\Y15w.ibs
**
** Copyright (c) Signal Integrity Software 2012, All Rights Reserved
************************************
.SUBCKT Y15w_dqbuff_FF PU_REF PD_REF PAD A EN Z PC_REF GC_REF
*
*
* C_comp
CCOMP PAD GC_REF +3.73000E-12 IC=0
*
RA A 0 1Meg
VINIT Vini 0    dc 200n
RETIR ETR  Vini 1G
CETR  ETR  0    1n
BETR  0    ETR  I= Time < 40p ? 0. : 1n
RETIF ETF  Vini 1G
CETF  ETF  0    1n
BETF  0    ETF  I= Time < 40p ? 0. : 1n
RETR ETR 0 R= V(A) > .5 ? 1G  : .02
RETF ETF 0 R= V(A) > .5 ? .02 : 1G
* Input Receiver
BZ Z 0 V= V(PAD) > 1.400 ? 1.0 : 0.0
RZZ Z  0 1MEG
*
* Ground Clamp Structure;
XGC GC_Current 0 PAD GC_REF GND_CLAMP
BGC PAD GC_REF I= V(GC_Current)
*
* Power Clamp Structure;
XPC PC_Current 0 PC_REF PAD POWER_CLAMP
BPC PAD PC_REF I= V(PC_Current)
*
* Pull Down Structure;
AKT_PD_R ETR KT_PD_R KT_PD_R_T
AKT_PD_F ETF KT_PD_F KT_PD_F_T
.model KT_PD_R_T pwl2(
+ xy_array = [ 0. .833 8.906p .833 17.811p .793 26.717p .755 35.623p .717 44.529p .682 53.434p .647 62.34p .614 71.246p .581 80.152p .55 89.057p .519 97.963p .489
+ 106.869p .46 115.774p .431 124.68p .402 133.586p .374 142.492p .346 151.397p .319 160.303p .291 169.209p .261 178.114p .231 187.02p .199
+ 195.926p .165 204.832p .129 213.737p .091 222.643p .05 231.549p .006 240.455p -.041 249.36p -.09 258.266p -.144 267.172p 0. 100.267n 0. ]  )
.model KT_PD_F_T pwl2(
+ xy_array = [ 0. .347 8.906p .833 17.811p .388 26.717p .431 35.623p .472 44.529p .511 53.434p .547 62.34p .581 71.246p .612 80.152p .641 89.057p .667 97.963p .692
+ 106.869p .714 115.774p .736 124.68p .755 133.586p .773 142.492p .79 151.397p .807 160.303p .824 169.209p .84 178.114p .858 187.02p .879
+ 195.926p .903 204.832p .93 213.737p .959 222.643p .989 231.549p 1.022 240.455p 1.047 249.36p 1.113 258.266p 1.112 267.172p 1. 100.267n 1. ] )
*
BPD PAD PD_REF I= V(EN) < .5 ? 0 : ; Off
+ V(A) > .5 ? V(PD_Current)*V(KT_PD_R) : V(PD_Current)*V(KT_PD_F)
XPD PD_Current 0 PAD PD_REF PULL_DOWN
*
* Pullup Structure;
AKT_PU_R ETR KT_PU_R KT_PU_R_T
AKT_PU_F ETF KT_PU_F KT_PU_F_T
.model KT_PU_R_T pwl2(
+ xy_array = [ 0. 0. 8.906p 0. 17.811p .207 26.717p .245 35.623p .283 44.529p .318 53.434p .353 62.34p .386 71.246p .419 80.152p .45 89.057p .481 97.963p .511
+ 106.869p .54 115.774p .569 124.68p .598 133.586p .626 142.492p .654 151.397p .682 160.303p .709 169.209p .739 178.114p .769 187.02p .801
+ 195.926p .835 204.832p .871 213.737p .909 222.643p .951 231.549p .994 240.455p 1.041 249.36p 1.09 258.266p 1.144 267.172p 1. 100.267n 1. ] )
.model KT_PU_F_T pwl2(
+ xy_array = [ 0. 1. 17.811p .612 26.717p .569 35.623p .528 44.529p .489 53.434p .453 62.34p .419 71.246p .388 80.152p .359 89.057p .333 97.963p .308
+ 106.869p .286 115.774p .264 124.68p .245 133.586p .227 142.492p .21 151.397p .193 160.303p .176 169.209p .16 178.114p .142 187.02p .121
+ 195.926p .097 204.832p .07 213.737p .042 222.643p .011 231.549p -.022 240.455p -.047 249.36p -.113 258.266p -.112 267.172p 0. 100.267n 0. ] )
*
BPU PAD PU_REF I= V(EN) < .5 ? 0 : ; Off
+ V(A) > .5 ? V(PU_Current)*V(KT_PU_R) : V(PU_Current)*V(KT_PU_F)
XPU PU_Current 0 PU_REF PAD PULL_UP
*
* Ground Clamp IV;
.SUBCKT GND_CLAMP PAD_OUT GC_OUT PAD_IN GC_IN
* Connections     Out+ Out In+ In
AGndClamp %vd(PAD_IN,GC_IN) %vd(PAD_OUT,GC_OUT) transfer
.model transfer pwl2(
+ xy_array = [
+ -4.30000E+00 -1.27801E+00
+ -3.30000E+00 -1.27801E+00
+ -3.29000E+00 -1.27058E+00
+ -3.22000E+00 -1.22093E+00
+ -3.19000E+00 -1.19985E+00
+ -3.18000E+00 -1.19282E+00
+ -3.06000E+00 -1.10851E+00
+ -3.03000E+00 -1.08770E+00
+ -3.01000E+00 -1.07382E+00
+ -2.92000E+00 -1.01138E+00
+ -2.90000E+00 -9.97668E-01
+ -2.87000E+00 -9.77103E-01
+ -2.78000E+00 -9.15410E-01
+ -2.76000E+00 -9.01869E-01
+ -2.71000E+00 -8.68017E-01
+ -2.65000E+00 -8.27394E-01
+ -2.63000E+00 -8.14022E-01
+ -2.55000E+00 -7.60530E-01
+ -2.52000E+00 -7.40471E-01
+ -2.50000E+00 -7.27271E-01
+ -2.41000E+00 -6.67872E-01
+ -2.40000E+00 -6.61272E-01
+ -2.36000E+00 -6.35233E-01
+ -2.28000E+00 -5.83157E-01
+ -2.27000E+00 -5.76749E-01
+ -2.24000E+00 -5.57527E-01
+ -2.16000E+00 -5.06267E-01
+ -2.15000E+00 -4.99982E-01
+ -2.12000E+00 -4.81129E-01
+ -2.04000E+00 -4.30853E-01
+ -2.03000E+00 -4.24716E-01
+ -2.02000E+00 -4.18579E-01
+ -1.94000E+00 -3.69483E-01
+ -1.93000E+00 -3.63517E-01
+ -1.92000E+00 -3.57552E-01
+ -1.86000E+00 -3.21762E-01
+ -1.84000E+00 -3.10233E-01
+ -1.83000E+00 -3.04469E-01
+ -1.80000E+00 -2.87175E-01
+ -1.78000E+00 -2.76192E-01
+ -1.75000E+00 -2.59718E-01
+ -1.74000E+00 -2.54227E-01
+ -1.72000E+00 -2.43969E-01
+ -1.70000E+00 -2.33712E-01
+ -1.69000E+00 -2.28905E-01
+ -1.68000E+00 -2.24098E-01
+ -1.66000E+00 -2.15047E-01
+ -1.65000E+00 -2.10862E-01
+ -1.64000E+00 -2.06677E-01
+ -1.63000E+00 -2.02885E-01
+ -1.62000E+00 -1.99093E-01
+ -1.60000E+00 -1.92344E-01
+ -1.59000E+00 -1.89366E-01
+ -1.58000E+00 -1.86388E-01
+ -1.57000E+00 -1.83740E-01
+ -1.56000E+00 -1.81092E-01
+ -1.55000E+00 -1.78774E-01
+ -1.54000E+00 -1.76456E-01
+ -1.53000E+00 -1.74137E-01
+ -1.52000E+00 -1.71819E-01
+ -1.51000E+00 -1.69770E-01
+ -1.50000E+00 -1.67721E-01
+ -1.49000E+00 -1.65673E-01
+ -1.47000E+00 -1.61575E-01
+ -1.46000E+00 -1.59526E-01
+ -1.45000E+00 -1.57621E-01
+ -1.43000E+00 -1.53812E-01
+ -1.41000E+00 -1.50003E-01
+ -1.35000E+00 -1.38575E-01
+ -1.27000E+00 -1.23338E-01
+ -1.18000E+00 -1.06197E-01
+ -1.16000E+00 -1.02388E-01
+ -1.15000E+00 -1.00534E-01
+ -9.50000E-01 -6.34641E-02
+ -9.40000E-01 -6.16106E-02
+ -8.90000E-01 -5.23431E-02
+ -8.60000E-01 -4.70567E-02
+ -8.50000E-01 -4.52946E-02
+ -8.10000E-01 -3.82461E-02
+ -7.70000E-01 -3.11976E-02
+ -7.60000E-01 -2.94355E-02
+ -7.30000E-01 -2.46448E-02
+ -7.20000E-01 -2.30479E-02
+ -7.00000E-01 -1.98541E-02
+ -6.90000E-01 -1.84480E-02
+ -6.80000E-01 -1.70419E-02
+ -6.60000E-01 -1.42297E-02
+ -6.50000E-01 -1.30413E-02
+ -6.40000E-01 -1.18529E-02
+ -6.20000E-01 -9.47612E-03
+ -6.00000E-01 -7.66360E-03
+ -5.90000E-01 -6.75733E-03
+ -5.70000E-01 -4.94481E-03
+ -5.50000E-01 -3.74464E-03
+ -5.20000E-01 -1.94437E-03
+ -4.90000E-01 -1.00763E-03
+ -4.80000E-01 -6.95386E-04
+ -4.60000E-01 -5.24251E-04
+ -4.00000E-01 -1.08453E-05
+ +0.00000E+00 +0.00000E+00
+ +6.60000E+00 +0.00000E+00
+ +7.60000E+00 +0.00000E+00
+ ] )
.ENDS GND_CLAMP
*
* Power Clamp IV;
.SUBCKT POWER_CLAMP PAD_OUT PC_OUT PC_IN PAD_IN
* Connections       Out+ Out In+ In
APwrClamp %vd(PC_IN,PAD_IN) %vd(PAD_OUT,PC_OUT) transfer
.model transfer pwl2(
+ xy_array = [
+ -4.30000E+00 +4.28653E-02
+ -3.30000E+00 +4.28653E-02
+ -3.29000E+00 +4.21936E-02
+ -3.28000E+00 +4.19960E-02
+ -3.09000E+00 +3.82737E-02
+ -3.08000E+00 +3.80778E-02
+ -2.89000E+00 +3.43667E-02
+ -2.88000E+00 +3.41714E-02
+ -2.84000E+00 +3.33902E-02
+ -2.73000E+00 +3.12483E-02
+ -2.68000E+00 +3.02747E-02
+ -2.64000E+00 +2.94958E-02
+ -2.59000E+00 +2.85256E-02
+ -2.52000E+00 +2.71673E-02
+ -2.45000E+00 +2.58091E-02
+ -2.44000E+00 +2.56151E-02
+ -2.36000E+00 +2.40697E-02
+ -2.33000E+00 +2.34901E-02
+ -2.28000E+00 +2.25243E-02
+ -2.24000E+00 +2.17561E-02
+ -2.21000E+00 +2.11799E-02
+ -2.12000E+00 +1.94515E-02
+ -2.09000E+00 +1.88795E-02
+ -2.00000E+00 +1.71637E-02
+ -1.97000E+00 +1.65968E-02
+ -1.91000E+00 +1.54629E-02
+ -1.88000E+00 +1.48960E-02
+ -1.85000E+00 +1.43361E-02
+ -1.81000E+00 +1.35895E-02
+ -1.79000E+00 +1.32162E-02
+ -1.76000E+00 +1.26562E-02
+ -1.73000E+00 +1.21060E-02
+ -1.70000E+00 +1.15557E-02
+ -1.67000E+00 +1.10055E-02
+ -1.64000E+00 +1.04552E-02
+ -1.63000E+00 +1.02751E-02
+ -1.60000E+00 +9.73479E-03
+ -1.58000E+00 +9.37457E-03
+ -1.57000E+00 +9.19688E-03
+ -1.54000E+00 +8.66380E-03
+ -1.53000E+00 +8.48611E-03
+ -1.49000E+00 +7.78574E-03
+ -1.48000E+00 +7.61065E-03
+ -1.45000E+00 +7.09401E-03
+ -1.44000E+00 +6.92180E-03
+ -1.41000E+00 +6.41379E-03
+ -1.40000E+00 +6.24445E-03
+ -1.37000E+00 +5.74634E-03
+ -1.36000E+00 +5.58030E-03
+ -1.33000E+00 +5.09359E-03
+ -1.32000E+00 +4.93135E-03
+ -1.29000E+00 +4.45784E-03
+ -1.28000E+00 +4.30000E-03
+ -1.25000E+00 +3.84183E-03
+ -1.24000E+00 +3.68911E-03
+ -1.23000E+00 +3.54238E-03
+ -1.22000E+00 +3.39565E-03
+ -1.20000E+00 +3.10219E-03
+ -1.19000E+00 +2.96253E-03
+ -1.18000E+00 +2.82287E-03
+ -1.16000E+00 +2.54356E-03
+ -1.15000E+00 +2.41018E-03
+ -1.14000E+00 +2.27681E-03
+ -1.12000E+00 +2.02405E-03
+ -1.11000E+00 +1.89768E-03
+ -1.10000E+00 +1.77130E-03
+ -1.08000E+00 +1.53455E-03
+ -1.07000E+00 +1.42270E-03
+ -1.06000E+00 +1.31084E-03
+ -1.05000E+00 +1.20813E-03
+ -1.04000E+00 +1.10542E-03
+ -1.03000E+00 +1.00271E-03
+ -1.02000E+00 +9.11034E-04
+ -1.01000E+00 +8.19355E-04
+ -1.00000E+00 +7.27676E-04
+ -9.90000E-01 +6.48235E-04
+ -9.80000E-01 +5.68794E-04
+ -9.70000E-01 +4.98677E-04
+ -9.60000E-01 +4.29544E-04
+ -9.50000E-01 +3.70840E-04
+ -9.40000E-01 +3.12135E-04
+ -9.30000E-01 +2.63958E-04
+ -9.20000E-01 +2.15780E-04
+ -9.00000E-01 +1.40821E-04
+ -8.90000E-01 +1.15186E-04
+ -8.70000E-01 +6.39169E-05
+ -8.60000E-01 +4.79740E-05
+ -8.40000E-01 +1.60882E-05
+ -8.20000E-01 +0.00000E+00
+ +6.60000E+00 +0.00000E+00
+ +7.60000E+00 +0.00000E+00
+ ] )
.ENDS POWER_CLAMP
*
* Pull Down IV;
.SUBCKT PULL_DOWN PD_Current    REF   PAD   PD_REF
* Connections     Out+ Out In+ In
APullDown %vd(PAD,PD_REF) %vd(PD_Current,REF) transfer
.model transfer pwl2(
+ xy_array = [
+ -4.30000E+00 -1.64580E-01
+ -3.30000E+00 -1.64580E-01
+ -3.03000E+00 -1.59373E-01
+ -3.02000E+00 -1.59180E-01
+ -2.98000E+00 -1.58409E-01
+ -2.69000E+00 -1.51917E-01
+ -2.66000E+00 -1.51246E-01
+ -2.62000E+00 -1.50350E-01
+ -2.37000E+00 -1.44006E-01
+ -2.34000E+00 -1.43245E-01
+ -2.28000E+00 -1.41723E-01
+ -2.05000E+00 -1.35126E-01
+ -1.98000E+00 -1.33119E-01
+ -1.79000E+00 -1.26838E-01
+ -1.57000E+00 -1.19565E-01
+ -1.43000E+00 -1.14474E-01
+ -1.41000E+00 -1.13747E-01
+ -1.38000E+00 -1.12656E-01
+ -1.19000E+00 -1.05050E-01
+ -1.16000E+00 -1.03850E-01
+ -1.10000E+00 -1.01448E-01
+ -9.10000E-01 -9.30963E-02
+ -8.60000E-01 -9.08986E-02
+ -8.50000E-01 -9.04590E-02
+ -8.00000E-01 -8.82612E-02
+ -7.90000E-01 -8.76562E-02
+ -7.60000E-01 -8.58412E-02
+ -7.10000E-01 -8.28162E-02
+ -6.90000E-01 -8.16062E-02
+ -6.60000E-01 -7.90859E-02
+ -6.40000E-01 -7.74057E-02
+ -6.00000E-01 -7.33359E-02
+ -4.10000E-01 -5.06546E-02
+ -4.00000E-01 -4.94608E-02
+ -3.80000E-01 -4.70733E-02
+ +0.00000E+00 -1.96706E-06
+ +1.50000E-01 +1.82566E-02
+ +1.80000E-01 +2.19084E-02
+ +2.00000E-01 +2.43428E-02
+ +3.10000E-01 +3.68486E-02
+ +3.50000E-01 +4.13962E-02
+ +3.80000E-01 +4.48068E-02
+ +4.70000E-01 +5.42720E-02
+ +5.20000E-01 +5.95304E-02
+ +5.60000E-01 +6.37371E-02
+ +6.10000E-01 +6.85092E-02
+ +6.80000E-01 +7.51900E-02
+ +7.50000E-01 +8.18709E-02
+ +7.70000E-01 +8.35715E-02
+ +8.40000E-01 +8.95236E-02
+ +9.10000E-01 +9.54757E-02
+ +9.20000E-01 +9.63260E-02
+ +1.00000E+00 +1.02228E-01
+ +1.05000E+00 +1.05917E-01
+ +1.10000E+00 +1.09605E-01
+ +1.14000E+00 +1.12059E-01
+ +1.19000E+00 +1.15126E-01
+ +1.26000E+00 +1.19419E-01
+ +1.27000E+00 +1.19896E-01
+ +1.28000E+00 +1.20373E-01
+ +1.37000E+00 +1.24665E-01
+ +1.40000E+00 +1.26096E-01
+ +1.46000E+00 +1.28182E-01
+ +1.48000E+00 +1.28878E-01
+ +1.58000E+00 +1.31209E-01
+ +1.62000E+00 +1.31630E-01
+ +1.71000E+00 +1.32575E-01
+ +1.84000E+00 +1.33942E-01
+ +2.20000E+00 +1.35441E-01
+ +3.65000E+00 +1.41479E-01
+ +3.71000E+00 +1.41729E-01
+ +3.78000E+00 +1.42021E-01
+ +4.16000E+00 +1.44333E-01
+ +4.20000E+00 +1.44577E-01
+ +4.25000E+00 +1.44881E-01
+ +4.41000E+00 +1.46792E-01
+ +4.57000E+00 +1.48703E-01
+ +4.60000E+00 +1.49061E-01
+ +4.63000E+00 +1.49419E-01
+ +4.75000E+00 +1.51690E-01
+ +4.77000E+00 +1.52069E-01
+ +4.81000E+00 +1.52826E-01
+ +4.92000E+00 +1.55537E-01
+ +4.94000E+00 +1.56030E-01
+ +4.97000E+00 +1.56769E-01
+ +5.16000E+00 +1.62894E-01
+ +5.19000E+00 +1.63861E-01
+ +5.37000E+00 +1.71387E-01
+ +5.38000E+00 +1.71805E-01
+ +5.39000E+00 +1.72223E-01
+ +5.58000E+00 +1.82081E-01
+ +5.59000E+00 +1.82599E-01
+ +5.78000E+00 +1.94568E-01
+ +5.80000E+00 +1.95828E-01
+ +5.99000E+00 +2.10031E-01
+ +6.00000E+00 +2.10890E-01
+ +6.19000E+00 +2.27210E-01
+ +6.20000E+00 +2.28179E-01
+ +6.39000E+00 +2.46582E-01
+ +6.40000E+00 +2.47660E-01
+ +6.60000E+00 +2.69212E-01
+ +7.60000E+00 +2.69212E-01
+ ] )
.ENDS PULL_DOWN
*
* Pull Up IV;
.SUBCKT PULL_UP PU_Current REF PU_REF PAD
* Connections   Out+ Out In+ In
APullUp %vd(PU_REF,PAD) %vd(PU_Current,REF) transfer
.model transfer pwl2(
+ xy_array = [
+ -4.30000E+00 +2.19028E-02
+ -3.30000E+00 +2.19028E-02
+ -3.05000E+00 +1.97896E-02
+ -2.92000E+00 +1.86908E-02
+ -2.72000E+00 +1.70003E-02
+ -2.41000E+00 +1.49078E-02
+ -2.16000E+00 +1.32204E-02
+ -1.78000E+00 +1.06554E-02
+ -1.00000E+00 +6.27653E-03
+ -4.10000E-01 +3.66436E-03
+ -3.40000E-01 +3.35444E-03
+ -3.10000E-01 +3.22162E-03
+ -2.50000E-01 +2.95597E-03
+ -2.10000E-01 +2.77888E-03
+ -1.80000E-01 +2.64605E-03
+ -1.70000E-01 +2.54121E-03
+ -1.10000E-01 +1.91217E-03
+ -8.00000E-02 +1.59765E-03
+ +0.00000E+00 -3.45892E-06
+ +6.00000E-02 -1.98924E-03
+ +7.00000E-02 -2.46256E-03
+ +1.20000E-01 -4.82917E-03
+ +1.30000E-01 -5.41338E-03
+ +2.00000E-01 -9.50286E-03
+ +2.80000E-01 -1.48421E-02
+ +2.90000E-01 -1.56002E-02
+ +4.60000E-01 -2.84881E-02
+ +4.70000E-01 -2.92462E-02
+ +5.00000E-01 -3.15205E-02
+ +6.90000E-01 -4.74444E-02
+ +7.80000E-01 -5.49873E-02
+ +1.00000E+00 -7.43890E-02
+ +1.03000E+00 -7.70347E-02
+ +1.20000E+00 -9.20269E-02
+ +1.73000E+00 -1.39940E-01
+ +1.76000E+00 -1.42653E-01
+ +1.77000E+00 -1.43571E-01
+ +3.50000E+00 -3.02473E-01
+ +3.57000E+00 -3.08903E-01
+ +3.62000E+00 -3.13495E-01
+ +3.66000E+00 -3.17169E-01
+ +3.70000E+00 -3.20843E-01
+ +3.74000E+00 -3.24517E-01
+ +3.77000E+00 -3.27273E-01
+ +3.83000E+00 -3.32784E-01
+ +3.86000E+00 -3.35539E-01
+ +3.87000E+00 -3.36458E-01
+ +3.91000E+00 -3.40132E-01
+ +3.94000E+00 -3.42887E-01
+ +3.99000E+00 -3.47480E-01
+ +4.00000E+00 -3.48307E-01
+ +4.09000E+00 -3.55754E-01
+ +4.15000E+00 -3.58754E-01
+ +4.21000E+00 -3.59843E-01
+ +4.29000E+00 -3.59638E-01
+ +4.33000E+00 -3.59167E-01
+ +4.40000E+00 -3.58342E-01
+ +4.42000E+00 -3.58107E-01
+ +4.48000E+00 -3.57400E-01
+ +4.58000E+00 -3.56222E-01
+ +4.65000E+00 -3.55397E-01
+ +4.66000E+00 -3.55318E-01
+ +4.75000E+00 -3.54609E-01
+ +4.80000E+00 -3.54215E-01
+ +4.84000E+00 -3.53900E-01
+ +4.89000E+00 -3.53506E-01
+ +5.00000E+00 -3.52639E-01
+ +5.07000E+00 -3.52088E-01
+ +5.08000E+00 -3.51890E-01
+ +5.09000E+00 -3.51691E-01
+ +5.13000E+00 -3.50898E-01
+ +5.16000E+00 -3.49592E-01
+ +5.17000E+00 -3.48887E-01
+ +5.19000E+00 -3.47478E-01
+ +5.21000E+00 -3.45348E-01
+ +5.25000E+00 -3.39410E-01
+ +5.30000E+00 -3.30681E-01
+ +5.33000E+00 -3.25913E-01
+ +5.35000E+00 -3.23311E-01
+ +5.37000E+00 -3.20709E-01
+ +5.43000E+00 -3.14758E-01
+ +5.45000E+00 -3.13255E-01
+ +5.52000E+00 -3.07993E-01
+ +5.53000E+00 -3.07241E-01
+ +5.62000E+00 -3.01376E-01
+ +5.68000E+00 -2.97466E-01
+ +5.80000E+00 -2.89646E-01
+ +5.84000E+00 -2.87039E-01
+ +5.91000E+00 -2.82477E-01
+ +5.98000E+00 -2.77402E-01
+ +6.00000E+00 -2.75952E-01
+ +6.11000E+00 -2.67977E-01
+ +6.14000E+00 -2.65614E-01
+ +6.15000E+00 -2.64827E-01
+ +6.23000E+00 -2.58527E-01
+ +6.29000E+00 -2.53500E-01
+ +6.30000E+00 -2.52663E-01
+ +6.35000E+00 -2.48474E-01
+ +6.45000E+00 -2.39580E-01
+ +6.47000E+00 -2.37801E-01
+ +6.60000E+00 -2.25522E-01
+ +7.60000E+00 -2.25522E-01
+ ] )
.ENDS PULL_UP
*
.ENDS Y15w_dqbuff_FF
*************************************
************************************
** Library generated Thu Oct 08 20:04:36 2015
** The IBIS file was C:\Myproject\chapter9\si_lib\ibis\Y15w.ibs
**
** Copyright (c) Signal Integrity Software 2012, All Rights Reserved
************************************
.SUBCKT Y15w_dqbuff_TT PU_REF PD_REF PAD A EN Z PC_REF GC_REF
*
*
* C_comp
CCOMP PAD GC_REF +3.94000E-12 IC=0
*
RA A 0 1Meg
VINIT Vini 0    dc 200n
RETIR ETR  Vini 1G
CETR  ETR  0    1n
BETR  0    ETR  I= Time < 40p ? 0. : 1n
RETIF ETF  Vini 1G
CETF  ETF  0    1n
BETF  0    ETF  I= Time < 40p ? 0. : 1n
RETR ETR 0 R= V(A) > .5 ? 1G  : .02
RETF ETF 0 R= V(A) > .5 ? .02 : 1G
* Input Receiver
BZ Z 0 V= V(PAD) > 1.400 ? 1.0 : 0.0
RZZ Z  0 1MEG
*
* Ground Clamp Structure;
XGC GC_Current 0 PAD GC_REF GND_CLAMP
BGC PAD GC_REF I= V(GC_Current)
*
* Power Clamp Structure;
XPC PC_Current 0 PC_REF PAD POWER_CLAMP
BPC PAD PC_REF I= V(PC_Current)
*
* Pull Down Structure;
AKT_PD_R ETR KT_PD_R KT_PD_R_T
AKT_PD_F ETF KT_PD_F KT_PD_F_T
.model KT_PD_R_T pwl2(
+ xy_array = [ 0. .84 10.318p .84 20.636p .802 30.954p .765 41.271p .73 51.589p .696 61.907p .663 72.225p .631 82.543p .6 92.861p .57 103.179p .54 113.496p .511
+ 123.814p .482 134.132p .454 144.45p .426 154.768p .398 165.086p .371 175.403p .343 185.721p .316 196.039p .288 206.357p .259 216.675p .228
+ 226.993p .195 237.311p .161 247.628p .125 257.946p .086 268.264p .044 278.582p -138.76u 288.9p -.045 299.218p -.105 309.536p -.146 319.853p 0. 100.32n 0. ]  )
.model KT_PD_F_T pwl2(
+ xy_array = [ 0. .344 10.318p .84 20.636p .388 30.954p .43 41.271p .471 51.589p .509 61.907p .545 72.225p .579 82.543p .609 92.861p .638 103.179p .665 113.496p .69
+ 123.814p .712 134.132p .734 144.45p .754 154.768p .773 165.086p .79 175.403p .807 185.721p .822 196.039p .838 206.357p .853 216.675p .868
+ 226.993p .886 237.311p .906 247.628p .928 257.946p .951 268.264p .976 278.582p 1.003 288.9p 1.031 299.218p 1.061 309.536p 1.092 319.853p 1. 100.32n 1. ] )
*
BPD PAD PD_REF I= V(EN) < .5 ? 0 : ; Off
+ V(A) > .5 ? V(PD_Current)*V(KT_PD_R) : V(PD_Current)*V(KT_PD_F)
XPD PD_Current 0 PAD PD_REF PULL_DOWN
*
* Pullup Structure;
AKT_PU_R ETR KT_PU_R KT_PU_R_T
AKT_PU_F ETF KT_PU_F KT_PU_F_T
.model KT_PU_R_T pwl2(
+ xy_array = [ 0. 0. 10.318p 0. 20.636p .198 30.954p .235 41.271p .27 51.589p .304 61.907p .337 72.225p .369 82.543p .4 92.861p .43 103.179p .46 113.496p .489
+ 123.814p .518 134.132p .546 144.45p .574 154.768p .602 165.086p .629 175.403p .657 185.721p .684 196.039p .712 206.357p .741 216.675p .772
+ 226.993p .805 237.311p .839 247.628p .875 257.946p .914 268.264p .956 278.582p 1. 288.9p 1.045 299.218p 1.105 309.536p 1.146 319.853p 1. 100.32n 1. ] )
.model KT_PU_F_T pwl2(
+ xy_array = [ 0. 1. 20.636p .612 30.954p .57 41.271p .529 51.589p .491 61.907p .455 72.225p .421 82.543p .391 92.861p .362 103.179p .335 113.496p .311
+ 123.814p .288 134.132p .266 144.45p .246 154.768p .227 165.086p .21 175.403p .193 185.721p .178 196.039p .162 206.357p .147 216.675p .132
+ 226.993p .114 237.311p .094 247.628p .072 257.946p .049 268.264p .024 278.582p -.003 288.9p -.031 299.218p -.061 309.536p -.092 319.853p 0. 100.32n 0. ] )
*
BPU PAD PU_REF I= V(EN) < .5 ? 0 : ; Off
+ V(A) > .5 ? V(PU_Current)*V(KT_PU_R) : V(PU_Current)*V(KT_PU_F)
XPU PU_Current 0 PU_REF PAD PULL_UP
*
* Ground Clamp IV;
.SUBCKT GND_CLAMP PAD_OUT GC_OUT PAD_IN GC_IN
* Connections     Out+ Out In+ In
AGndClamp %vd(PAD_IN,GC_IN) %vd(PAD_OUT,GC_OUT) transfer
.model transfer pwl2(
+ xy_array = [
+ -4.30000E+00 -1.16008E+00
+ -3.30000E+00 -1.16008E+00
+ -3.29000E+00 -1.15329E+00
+ -3.22000E+00 -1.10785E+00
+ -3.19000E+00 -1.08838E+00
+ -3.18000E+00 -1.08189E+00
+ -3.06000E+00 -1.00478E+00
+ -3.03000E+00 -9.85505E-01
+ -3.01000E+00 -9.72795E-01
+ -2.92000E+00 -9.15599E-01
+ -2.90000E+00 -9.02889E-01
+ -2.87000E+00 -8.84036E-01
+ -2.78000E+00 -8.27477E-01
+ -2.76000E+00 -8.14909E-01
+ -2.71000E+00 -7.83851E-01
+ -2.65000E+00 -7.46582E-01
+ -2.63000E+00 -7.34159E-01
+ -2.55000E+00 -6.85058E-01
+ -2.52000E+00 -6.66646E-01
+ -2.50000E+00 -6.54370E-01
+ -2.41000E+00 -5.99882E-01
+ -2.40000E+00 -5.93828E-01
+ -2.36000E+00 -5.69611E-01
+ -2.28000E+00 -5.21893E-01
+ -2.27000E+00 -5.15929E-01
+ -2.24000E+00 -4.98034E-01
+ -2.16000E+00 -4.51094E-01
+ -2.15000E+00 -4.45227E-01
+ -2.12000E+00 -4.27624E-01
+ -2.04000E+00 -3.81566E-01
+ -2.03000E+00 -3.75809E-01
+ -2.02000E+00 -3.70052E-01
+ -1.94000E+00 -3.25070E-01
+ -1.93000E+00 -3.19447E-01
+ -1.92000E+00 -3.13824E-01
+ -1.86000E+00 -2.81133E-01
+ -1.84000E+00 -2.70235E-01
+ -1.83000E+00 -2.64993E-01
+ -1.80000E+00 -2.49266E-01
+ -1.78000E+00 -2.38781E-01
+ -1.75000E+00 -2.23894E-01
+ -1.74000E+00 -2.18931E-01
+ -1.72000E+00 -2.09006E-01
+ -1.70000E+00 -1.99731E-01
+ -1.69000E+00 -1.95094E-01
+ -1.68000E+00 -1.90737E-01
+ -1.66000E+00 -1.82025E-01
+ -1.65000E+00 -1.77997E-01
+ -1.64000E+00 -1.73968E-01
+ -1.63000E+00 -1.70246E-01
+ -1.62000E+00 -1.66523E-01
+ -1.60000E+00 -1.59762E-01
+ -1.59000E+00 -1.56740E-01
+ -1.58000E+00 -1.53717E-01
+ -1.57000E+00 -1.51036E-01
+ -1.56000E+00 -1.48355E-01
+ -1.55000E+00 -1.45968E-01
+ -1.54000E+00 -1.43580E-01
+ -1.53000E+00 -1.41504E-01
+ -1.52000E+00 -1.39428E-01
+ -1.51000E+00 -1.37352E-01
+ -1.50000E+00 -1.35277E-01
+ -1.49000E+00 -1.33469E-01
+ -1.47000E+00 -1.29854E-01
+ -1.46000E+00 -1.28047E-01
+ -1.45000E+00 -1.26239E-01
+ -1.43000E+00 -1.22624E-01
+ -1.41000E+00 -1.19250E-01
+ -1.35000E+00 -1.09127E-01
+ -1.27000E+00 -9.56301E-02
+ -1.18000E+00 -8.04457E-02
+ -1.16000E+00 -7.71835E-02
+ -1.15000E+00 -7.55524E-02
+ -9.50000E-01 -4.29306E-02
+ -9.40000E-01 -4.12995E-02
+ -8.90000E-01 -3.35238E-02
+ -8.60000E-01 -2.88583E-02
+ -8.50000E-01 -2.73902E-02
+ -8.10000E-01 -2.15176E-02
+ -7.70000E-01 -1.61509E-02
+ -7.60000E-01 -1.48093E-02
+ -7.30000E-01 -1.13402E-02
+ -7.20000E-01 -1.01839E-02
+ -7.00000E-01 -8.29887E-03
+ -6.90000E-01 -7.35638E-03
+ -6.80000E-01 -6.41389E-03
+ -6.60000E-01 -4.99552E-03
+ -6.50000E-01 -4.28633E-03
+ -6.40000E-01 -3.57715E-03
+ -6.20000E-01 -2.62653E-03
+ -6.00000E-01 -1.67591E-03
+ -5.90000E-01 -1.43701E-03
+ -5.70000E-01 -9.59216E-04
+ -5.50000E-01 -4.81419E-04
+ -5.20000E-01 -3.20946E-04
+ -4.90000E-01 -1.60473E-04
+ -4.80000E-01 -1.06982E-04
+ -4.60000E-01 +0.00000E+00
+ -4.00000E-01 +0.00000E+00
+ +0.00000E+00 +0.00000E+00
+ +6.60000E+00 +0.00000E+00
+ +7.60000E+00 +0.00000E+00
+ ] )
.ENDS GND_CLAMP
*
* Power Clamp IV;
.SUBCKT POWER_CLAMP PAD_OUT PC_OUT PC_IN PAD_IN
* Connections       Out+ Out In+ In
APwrClamp %vd(PC_IN,PAD_IN) %vd(PAD_OUT,PC_OUT) transfer
.model transfer pwl2(
+ xy_array = [
+ -4.30000E+00 +3.81168E-02
+ -3.30000E+00 +3.81168E-02
+ -3.29000E+00 +3.74268E-02
+ -3.28000E+00 +3.72431E-02
+ -3.09000E+00 +3.37841E-02
+ -3.08000E+00 +3.36020E-02
+ -2.89000E+00 +3.01559E-02
+ -2.88000E+00 +2.99745E-02
+ -2.84000E+00 +2.92521E-02
+ -2.73000E+00 +2.72657E-02
+ -2.68000E+00 +2.63628E-02
+ -2.64000E+00 +2.56441E-02
+ -2.59000E+00 +2.47458E-02
+ -2.52000E+00 +2.34882E-02
+ -2.45000E+00 +2.22384E-02
+ -2.44000E+00 +2.20599E-02
+ -2.36000E+00 +2.06316E-02
+ -2.33000E+00 +2.00999E-02
+ -2.28000E+00 +1.92138E-02
+ -2.24000E+00 +1.85048E-02
+ -2.21000E+00 +1.79776E-02
+ -2.12000E+00 +1.63960E-02
+ -2.09000E+00 +1.58746E-02
+ -2.00000E+00 +1.43104E-02
+ -1.97000E+00 +1.37967E-02
+ -1.91000E+00 +1.27693E-02
+ -1.88000E+00 +1.22556E-02
+ -1.85000E+00 +1.17497E-02
+ -1.81000E+00 +1.10753E-02
+ -1.79000E+00 +1.07418E-02
+ -1.76000E+00 +1.02416E-02
+ -1.73000E+00 +9.74819E-03
+ -1.70000E+00 +9.25473E-03
+ -1.67000E+00 +8.76888E-03
+ -1.64000E+00 +8.28303E-03
+ -1.63000E+00 +8.12371E-03
+ -1.60000E+00 +7.64576E-03
+ -1.58000E+00 +7.33319E-03
+ -1.57000E+00 +7.17690E-03
+ -1.54000E+00 +6.70804E-03
+ -1.53000E+00 +6.55576E-03
+ -1.49000E+00 +5.94667E-03
+ -1.48000E+00 +5.79439E-03
+ -1.45000E+00 +5.34981E-03
+ -1.44000E+00 +5.20161E-03
+ -1.41000E+00 +4.76810E-03
+ -1.40000E+00 +4.62359E-03
+ -1.37000E+00 +4.20258E-03
+ -1.36000E+00 +4.06224E-03
+ -1.33000E+00 +3.65541E-03
+ -1.32000E+00 +3.51980E-03
+ -1.29000E+00 +3.12912E-03
+ -1.28000E+00 +2.99890E-03
+ -1.25000E+00 +2.62485E-03
+ -1.24000E+00 +2.50498E-03
+ -1.23000E+00 +2.38512E-03
+ -1.22000E+00 +2.26525E-03
+ -1.20000E+00 +2.03931E-03
+ -1.19000E+00 +1.92635E-03
+ -1.18000E+00 +1.81338E-03
+ -1.16000E+00 +1.60538E-03
+ -1.15000E+00 +1.50138E-03
+ -1.14000E+00 +1.39738E-03
+ -1.12000E+00 +1.20452E-03
+ -1.11000E+00 +1.11415E-03
+ -1.10000E+00 +1.02378E-03
+ -1.08000E+00 +8.55024E-04
+ -1.07000E+00 +7.77769E-04
+ -1.06000E+00 +7.00514E-04
+ -1.05000E+00 +6.30374E-04
+ -1.04000E+00 +5.60234E-04
+ -1.03000E+00 +4.98280E-04
+ -1.02000E+00 +4.36327E-04
+ -1.01000E+00 +3.85073E-04
+ -1.00000E+00 +3.33818E-04
+ -9.90000E-01 +2.82564E-04
+ -9.80000E-01 +2.43083E-04
+ -9.70000E-01 +2.03601E-04
+ -9.60000E-01 +1.64119E-04
+ -9.50000E-01 +1.35251E-04
+ -9.40000E-01 +1.06383E-04
+ -9.30000E-01 +8.43092E-05
+ -9.20000E-01 +6.22350E-05
+ -9.00000E-01 +3.31929E-05
+ -8.90000E-01 +1.86718E-05
+ -8.70000E-01 +6.22395E-06
+ -8.60000E-01 +0.00000E+00
+ -8.40000E-01 +0.00000E+00
+ -8.20000E-01 +0.00000E+00
+ +6.60000E+00 +0.00000E+00
+ +7.60000E+00 +0.00000E+00
+ ] )
.ENDS POWER_CLAMP
*
* Pull Down IV;
.SUBCKT PULL_DOWN PD_Current    REF   PAD   PD_REF
* Connections     Out+ Out In+ In
APullDown %vd(PAD,PD_REF) %vd(PD_Current,REF) transfer
.model transfer pwl2(
+ xy_array = [
+ -4.30000E+00 +1.01226E+00
+ -3.30000E+00 +1.01226E+00
+ -3.03000E+00 +8.41613E-01
+ -3.02000E+00 +8.35403E-01
+ -2.98000E+00 +8.10700E-01
+ -2.69000E+00 +6.33595E-01
+ -2.66000E+00 +6.15498E-01
+ -2.62000E+00 +5.91566E-01
+ -2.37000E+00 +4.44463E-01
+ -2.34000E+00 +4.27109E-01
+ -2.28000E+00 +3.92775E-01
+ -2.05000E+00 +2.63779E-01
+ -1.98000E+00 +2.26054E-01
+ -1.79000E+00 +1.28048E-01
+ -1.57000E+00 +4.14650E-02
+ -1.43000E+00 +1.71289E-02
+ -1.41000E+00 +1.44583E-02
+ -1.38000E+00 +1.04524E-02
+ -1.19000E+00 -1.49182E-02
+ -1.16000E+00 -1.88120E-02
+ -1.10000E+00 -2.62537E-02
+ -9.10000E-01 -4.95913E-02
+ -8.60000E-01 -5.54130E-02
+ -8.50000E-01 -5.63404E-02
+ -8.00000E-01 -6.08510E-02
+ -7.90000E-01 -6.16519E-02
+ -7.60000E-01 -6.40547E-02
+ -7.10000E-01 -6.59115E-02
+ -6.90000E-01 -6.59987E-02
+ -6.60000E-01 -6.56628E-02
+ -6.40000E-01 -6.49824E-02
+ -6.00000E-01 -6.26859E-02
+ -4.10000E-01 -4.44226E-02
+ -4.00000E-01 -4.33732E-02
+ -3.80000E-01 -4.12047E-02
+ +0.00000E+00 -2.04793E-06
+ +1.50000E-01 +1.59249E-02
+ +1.80000E-01 +1.91103E-02
+ +2.00000E-01 +2.10771E-02
+ +3.10000E-01 +3.18944E-02
+ +3.50000E-01 +3.58280E-02
+ +3.80000E-01 +3.85288E-02
+ +4.70000E-01 +4.66313E-02
+ +5.20000E-01 +5.11327E-02
+ +5.60000E-01 +5.43830E-02
+ +6.10000E-01 +5.84457E-02
+ +6.80000E-01 +6.41336E-02
+ +7.50000E-01 +6.91809E-02
+ +7.70000E-01 +7.06230E-02
+ +8.40000E-01 +7.56704E-02
+ +9.10000E-01 +8.00281E-02
+ +9.20000E-01 +8.06506E-02
+ +1.00000E+00 +8.56309E-02
+ +1.05000E+00 +8.82374E-02
+ +1.10000E+00 +9.08440E-02
+ +1.14000E+00 +9.29292E-02
+ +1.19000E+00 +9.49822E-02
+ +1.26000E+00 +9.78564E-02
+ +1.27000E+00 +9.82670E-02
+ +1.28000E+00 +9.86776E-02
+ +1.37000E+00 +1.01363E-01
+ +1.40000E+00 +1.01967E-01
+ +1.46000E+00 +1.03175E-01
+ +1.48000E+00 +1.03362E-01
+ +1.58000E+00 +1.04296E-01
+ +1.62000E+00 +1.04669E-01
+ +1.71000E+00 +1.05510E-01
+ +1.84000E+00 +1.06063E-01
+ +2.20000E+00 +1.07594E-01
+ +3.65000E+00 +1.12479E-01
+ +3.71000E+00 +1.12681E-01
+ +3.78000E+00 +1.13054E-01
+ +4.16000E+00 +1.15079E-01
+ +4.20000E+00 +1.15259E-01
+ +4.25000E+00 +1.15604E-01
+ +4.41000E+00 +1.16057E-01
+ +4.57000E+00 +1.16300E-01
+ +4.60000E+00 +1.16290E-01
+ +4.63000E+00 +1.16397E-01
+ +4.75000E+00 +1.16714E-01
+ +4.77000E+00 +1.16753E-01
+ +4.81000E+00 +1.17015E-01
+ +4.92000E+00 +1.17686E-01
+ +4.94000E+00 +1.17801E-01
+ +4.97000E+00 +1.18167E-01
+ +5.16000E+00 +1.20408E-01
+ +5.19000E+00 +1.21005E-01
+ +5.37000E+00 +1.24539E-01
+ +5.38000E+00 +1.24826E-01
+ +5.39000E+00 +1.25113E-01
+ +5.58000E+00 +1.30535E-01
+ +5.59000E+00 +1.30918E-01
+ +5.78000E+00 +1.38184E-01
+ +5.80000E+00 +1.39160E-01
+ +5.99000E+00 +1.48408E-01
+ +6.00000E+00 +1.48996E-01
+ +6.19000E+00 +1.60167E-01
+ +6.20000E+00 +1.60853E-01
+ +6.39000E+00 +1.73892E-01
+ +6.40000E+00 +1.74677E-01
+ +6.60000E+00 +1.89871E-01
+ +7.60000E+00 +1.89871E-01
+ ] )
.ENDS PULL_DOWN
*
* Pull Up IV;
.SUBCKT PULL_UP PU_Current REF PU_REF PAD
* Connections   Out+ Out In+ In
APullUp %vd(PU_REF,PAD) %vd(PU_Current,REF) transfer
.model transfer pwl2(
+ xy_array = [
+ -4.30000E+00 -1.21597E-02
+ -3.30000E+00 -1.21597E-02
+ -3.05000E+00 -9.09126E-03
+ -2.92000E+00 -7.76837E-03
+ -2.72000E+00 -5.45256E-03
+ -2.41000E+00 -1.90530E-03
+ -2.16000E+00 +8.96212E-04
+ -1.78000E+00 +5.26678E-03
+ -1.00000E+00 +1.10882E-02
+ -4.10000E-01 +8.07877E-03
+ -3.40000E-01 +7.68211E-03
+ -3.10000E-01 +7.36656E-03
+ -2.50000E-01 +6.73547E-03
+ -2.10000E-01 +6.00551E-03
+ -1.80000E-01 +5.45805E-03
+ -1.70000E-01 +5.27556E-03
+ -1.10000E-01 +3.65483E-03
+ -8.00000E-02 +2.84447E-03
+ +0.00000E+00 -3.29282E-06
+ +6.00000E-02 -2.68682E-03
+ +7.00000E-02 -3.21625E-03
+ +1.20000E-01 -5.86342E-03
+ +1.30000E-01 -6.48622E-03
+ +2.00000E-01 -1.08458E-02
+ +2.80000E-01 -1.58283E-02
+ +2.90000E-01 -1.65367E-02
+ +4.60000E-01 -2.85810E-02
+ +4.70000E-01 -2.93473E-02
+ +5.00000E-01 -3.16462E-02
+ +6.90000E-01 -4.62054E-02
+ +7.80000E-01 -5.34506E-02
+ +1.00000E+00 -7.11611E-02
+ +1.03000E+00 -7.36254E-02
+ +1.20000E+00 -8.75896E-02
+ +1.73000E+00 -1.31125E-01
+ +1.76000E+00 -1.33607E-01
+ +1.77000E+00 -1.34434E-01
+ +3.50000E+00 -2.77538E-01
+ +3.57000E+00 -2.83328E-01
+ +3.62000E+00 -2.87464E-01
+ +3.66000E+00 -2.90773E-01
+ +3.70000E+00 -2.94081E-01
+ +3.74000E+00 -2.97390E-01
+ +3.77000E+00 -2.99818E-01
+ +3.83000E+00 -3.04217E-01
+ +3.86000E+00 -3.05942E-01
+ +3.87000E+00 -3.06393E-01
+ +3.91000E+00 -3.07335E-01
+ +3.94000E+00 -3.07004E-01
+ +3.99000E+00 -3.04116E-01
+ +4.00000E+00 -3.03351E-01
+ +4.09000E+00 -2.92798E-01
+ +4.15000E+00 -2.83741E-01
+ +4.21000E+00 -2.73995E-01
+ +4.29000E+00 -2.60506E-01
+ +4.33000E+00 -2.53648E-01
+ +4.40000E+00 -2.41645E-01
+ +4.42000E+00 -2.38257E-01
+ +4.48000E+00 -2.28091E-01
+ +4.58000E+00 -2.10589E-01
+ +4.65000E+00 -1.98337E-01
+ +4.66000E+00 -1.96587E-01
+ +4.75000E+00 -1.80594E-01
+ +4.80000E+00 -1.70918E-01
+ +4.84000E+00 -1.61512E-01
+ +4.89000E+00 -1.45542E-01
+ +5.00000E+00 -9.34877E-02
+ +5.07000E+00 -5.53231E-02
+ +5.08000E+00 -4.97782E-02
+ +5.09000E+00 -4.41046E-02
+ +5.13000E+00 -2.14105E-02
+ +5.16000E+00 -3.97760E-03
+ +5.17000E+00 +1.90228E-03
+ +5.19000E+00 +1.35468E-02
+ +5.21000E+00 +2.51914E-02
+ +5.25000E+00 +4.90032E-02
+ +5.30000E+00 +7.89860E-02
+ +5.33000E+00 +9.71098E-02
+ +5.35000E+00 +1.09372E-01
+ +5.37000E+00 +1.21634E-01
+ +5.43000E+00 +1.58529E-01
+ +5.45000E+00 +1.71012E-01
+ +5.52000E+00 +2.14939E-01