| "2015.07rc1" 197783 1445472278 prefer_vt_curves
************************************
** Library generated Wed Oct 21 17:37:08 2015
** The IBIS file was C:\Myproject\project2\si_lib\ibis\ad2147x_196_ibs.ibs
**
** Copyright (c) Signal Integrity Software 2012, All Rights Reserved
************************************
.SUBCKT ad2147x_196_ibs_PDUSDGZ_FF PC_REF GC_REF PAD Z
*
*
* C_comp
CCOMP PAD GC_REF +3.31810E-12 IC=0
*
* Input Receiver
BZ Z 0 V= V(PAD) > 1.400 ? 1.0 : 0.0
RZZ Z  0 1MEG
*
* Ground Clamp Structure;
XGC GC_Current 0 PAD GC_REF GND_CLAMP
BGC PAD GC_REF I= V(GC_Current)
*
* Power Clamp Structure;
XPC PC_Current 0 PC_REF PAD POWER_CLAMP
BPC PAD PC_REF I= V(PC_Current)
*
* Ground Clamp IV;
.SUBCKT GND_CLAMP PAD_OUT GC_OUT PAD_IN GC_IN
* Connections     Out+ Out In+ In
AGndClamp %vd(PAD_IN,GC_IN) %vd(PAD_OUT,GC_OUT) transfer
.model transfer pwl2(
+ xy_array = [
+ -4.30000E+00 -2.52400E+01
+ -3.30000E+00 -2.52400E+01
+ -3.23000E+00 -2.44800E+01
+ -3.16000E+00 -2.37100E+01
+ -3.09000E+00 -2.29500E+01
+ -3.02000E+00 -2.21800E+01
+ -2.95000E+00 -2.14200E+01
+ -2.88000E+00 -2.06500E+01
+ -2.81000E+00 -1.98900E+01
+ -2.74000E+00 -1.91000E+01
+ -2.67000E+00 -1.83400E+01
+ -2.60000E+00 -1.75700E+01
+ -2.53000E+00 -1.68100E+01
+ -2.46000E+00 -1.60500E+01
+ -2.39000E+00 -1.52800E+01
+ -2.32000E+00 -1.45200E+01
+ -2.25000E+00 -1.37600E+01
+ -2.18000E+00 -1.29900E+01
+ -2.11000E+00 -1.22300E+01
+ -2.04000E+00 -1.14700E+01
+ -1.97000E+00 -1.07100E+01
+ -1.90000E+00 -9.95400E+00
+ -1.83000E+00 -9.19500E+00
+ -1.76000E+00 -8.43800E+00
+ -1.69000E+00 -7.68100E+00
+ -1.62000E+00 -6.92600E+00
+ -1.55000E+00 -6.17400E+00
+ -1.48000E+00 -5.42300E+00
+ -1.41000E+00 -4.67600E+00
+ -1.34000E+00 -3.93400E+00
+ -1.27000E+00 -3.19800E+00
+ -1.20000E+00 -2.47100E+00
+ -1.13000E+00 -1.75800E+00
+ -1.06000E+00 -1.07300E+00
+ -9.90000E-01 -4.52100E-01
+ -9.20000E-01 -9.55100E-02
+ -8.50000E-01 -2.89100E-02
+ -7.80000E-01 -1.91200E-02
+ -7.10000E-01 -1.25000E-02
+ -6.40000E-01 -7.02800E-03
+ -5.70000E-01 -2.97600E-03
+ -5.00000E-01 -8.17400E-04
+ -4.30000E-01 -2.02300E-04
+ -3.60000E-01 -1.39500E-04
+ -2.90000E-01 -1.36600E-04
+ -2.20000E-01 -1.36400E-04
+ -1.50000E-01 -1.36300E-04
+ -8.00000E-02 -1.36100E-04
+ -1.00000E-02 -1.36000E-04
+ +6.00000E-02 -1.35900E-04
+ +1.30000E-01 -1.35800E-04
+ +2.00000E-01 -1.35600E-04
+ +2.70000E-01 -1.35500E-04
+ +3.40000E-01 -1.35300E-04
+ +4.10000E-01 -1.35100E-04
+ +4.80000E-01 -1.34900E-04
+ +5.50000E-01 -1.34700E-04
+ +6.20000E-01 -1.34500E-04
+ +6.90000E-01 -1.34200E-04
+ +7.60000E-01 -1.33900E-04
+ +8.30000E-01 -1.33600E-04
+ +9.00000E-01 -1.33200E-04
+ +9.70000E-01 -1.32700E-04
+ +1.04000E+00 -1.32200E-04
+ +1.11000E+00 -1.31500E-04
+ +1.18000E+00 -1.30600E-04
+ +1.25000E+00 -1.29600E-04
+ +1.32000E+00 -1.28400E-04
+ +1.39000E+00 -1.27000E-04
+ +1.46000E+00 -1.25500E-04
+ +1.53000E+00 -1.23800E-04
+ +1.60000E+00 -1.21900E-04
+ +1.67000E+00 -1.19900E-04
+ +1.74000E+00 -1.17700E-04
+ +1.81000E+00 -1.15300E-04
+ +1.88000E+00 -1.12800E-04
+ +1.95000E+00 -1.10100E-04
+ +2.02000E+00 -1.07300E-04
+ +2.09000E+00 -1.04200E-04
+ +2.16000E+00 -1.01000E-04
+ +2.23000E+00 -9.75700E-05
+ +2.30000E+00 -9.38900E-05
+ +2.37000E+00 -8.98500E-05
+ +2.44000E+00 -8.49200E-05
+ +2.51000E+00 -6.03100E-05
+ +2.58000E+00 -1.64900E-05
+ +2.65000E+00 -2.08500E-06
+ +2.72000E+00 -4.93700E-08
+ +2.79000E+00 +9.01800E-08
+ +2.86000E+00 +1.00700E-07
+ +2.93000E+00 +1.05000E-07
+ +3.00000E+00 +1.08900E-07
+ +3.07000E+00 +1.12900E-07
+ +3.14000E+00 +1.16800E-07
+ +3.21000E+00 +1.20800E-07
+ +3.28000E+00 +1.24700E-07
+ +4.28000E+00 +1.24700E-07
+ ] )
.ENDS GND_CLAMP
*
* Power Clamp IV;
.SUBCKT POWER_CLAMP PAD_OUT PC_OUT PC_IN PAD_IN
* Connections       Out+ Out In+ In
APwrClamp %vd(PC_IN,PAD_IN) %vd(PAD_OUT,PC_OUT) transfer
.model transfer pwl2(
+ xy_array = [
+ -4.28000E+00 +3.52900E+00
+ -3.28000E+00 +3.52900E+00
+ -3.24000E+00 +3.21500E+00
+ -3.20000E+00 +2.90300E+00
+ -3.16000E+00 +2.59300E+00
+ -3.12000E+00 +2.28600E+00
+ -3.08000E+00 +1.98200E+00
+ -3.04000E+00 +1.68200E+00
+ -3.00000E+00 +1.38700E+00
+ -2.96000E+00 +1.10000E+00
+ -2.92000E+00 +8.24900E-01
+ -2.88000E+00 +5.65300E-01
+ -2.84000E+00 +3.33200E-01
+ -2.80000E+00 +1.49400E-01
+ -2.76000E+00 +4.27000E-02
+ -2.72000E+00 +7.83800E-03
+ -2.68000E+00 +1.18900E-03
+ -2.64000E+00 +1.72600E-04
+ -2.60000E+00 +2.50100E-05
+ -2.56000E+00 +3.85400E-06
+ -2.52000E+00 +8.27900E-07
+ -2.48000E+00 +3.93600E-07
+ -2.44000E+00 +3.29300E-07
+ -2.40000E+00 +3.17900E-07
+ -2.36000E+00 +3.14100E-07
+ -2.32000E+00 +3.11300E-07
+ -2.28000E+00 +3.08700E-07
+ -2.24000E+00 +3.06100E-07
+ -2.20000E+00 +3.03500E-07
+ -2.16000E+00 +3.01000E-07
+ -2.12000E+00 +2.98400E-07
+ -2.08000E+00 +2.95900E-07
+ -2.04000E+00 +2.93300E-07
+ -2.00000E+00 +2.90800E-07
+ -1.96000E+00 +2.88300E-07
+ -1.92000E+00 +2.85800E-07
+ -1.88000E+00 +2.83300E-07
+ -1.84000E+00 +2.80800E-07
+ -1.80000E+00 +2.78300E-07
+ -1.76000E+00 +2.75800E-07
+ -1.72000E+00 +2.73300E-07
+ -1.68000E+00 +2.70900E-07
+ -1.64000E+00 +2.68400E-07
+ -1.60000E+00 +2.65900E-07
+ -1.56000E+00 +2.63500E-07
+ -1.52000E+00 +2.61000E-07
+ -1.48000E+00 +2.58600E-07
+ -1.44000E+00 +2.56100E-07
+ -1.40000E+00 +2.55500E-07
+ -1.36000E+00 +2.55500E-07
+ -1.32000E+00 +2.55500E-07
+ -1.28000E+00 +2.55500E-07
+ -1.24000E+00 +2.55500E-07
+ -1.20000E+00 +2.55500E-07
+ -1.16000E+00 +2.55500E-07
+ -1.12000E+00 +2.55500E-07
+ -1.08000E+00 +2.55500E-07
+ -1.04000E+00 +2.55500E-07
+ -1.00000E+00 +2.55500E-07
+ -9.60000E-01 +2.55500E-07
+ -9.20000E-01 +2.55500E-07
+ -8.80000E-01 +2.55500E-07
+ -8.40000E-01 +2.55500E-07
+ -8.00000E-01 +2.55500E-07
+ -7.60000E-01 +2.55500E-07
+ -7.20000E-01 +2.55500E-07
+ -6.80000E-01 +2.55500E-07
+ -6.40000E-01 +2.55500E-07
+ -6.00000E-01 +2.55500E-07
+ -5.60000E-01 +2.55500E-07
+ -5.20000E-01 +2.55500E-07
+ -4.80000E-01 +2.55500E-07
+ -4.40000E-01 +2.55500E-07
+ -4.00000E-01 +2.55500E-07
+ -3.60000E-01 +2.55500E-07
+ -3.20000E-01 +2.55500E-07
+ -2.80000E-01 +1.72100E-07
+ -2.40000E-01 +1.58100E-07
+ -2.00000E-01 +1.54200E-07
+ -1.60000E-01 +1.51700E-07
+ -1.20000E-01 +1.49400E-07
+ -8.00000E-02 +1.47100E-07
+ -4.00000E-02 +1.44900E-07
+ +0.00000E+00 +1.42700E-07
+ +1.00000E+00 +1.42700E-07
+ ] )
.ENDS POWER_CLAMP
*
.ENDS ad2147x_196_ibs_PDUSDGZ_FF
*************************************
************************************
** Library generated Wed Oct 21 17:37:08 2015
** The IBIS file was C:\Myproject\project2\si_lib\ibis\ad2147x_196_ibs.ibs
**
** Copyright (c) Signal Integrity Software 2012, All Rights Reserved
************************************
.SUBCKT ad2147x_196_ibs_PDUSDGZ_TT PC_REF GC_REF PAD Z
*
*
* C_comp
CCOMP PAD GC_REF +3.43730E-12 IC=0
*
* Input Receiver
BZ Z 0 V= V(PAD) > 1.400 ? 1.0 : 0.0
RZZ Z  0 1MEG
*
* Ground Clamp Structure;
XGC GC_Current 0 PAD GC_REF GND_CLAMP
BGC PAD GC_REF I= V(GC_Current)
*
* Power Clamp Structure;
XPC PC_Current 0 PC_REF PAD POWER_CLAMP
BPC PAD PC_REF I= V(PC_Current)
*
* Ground Clamp IV;
.SUBCKT GND_CLAMP PAD_OUT GC_OUT PAD_IN GC_IN
* Connections     Out+ Out In+ In
AGndClamp %vd(PAD_IN,GC_IN) %vd(PAD_OUT,GC_OUT) transfer
.model transfer pwl2(
+ xy_array = [
+ -4.30000E+00 -1.88000E+01
+ -3.30000E+00 -1.88000E+01
+ -3.23000E+00 -1.82500E+01
+ -3.16000E+00 -1.76900E+01
+ -3.09000E+00 -1.71400E+01
+ -3.02000E+00 -1.65900E+01
+ -2.95000E+00 -1.60400E+01
+ -2.88000E+00 -1.54800E+01
+ -2.81000E+00 -1.49300E+01
+ -2.74000E+00 -1.43800E+01
+ -2.67000E+00 -1.38200E+01
+ -2.60000E+00 -1.32700E+01
+ -2.53000E+00 -1.27200E+01
+ -2.46000E+00 -1.21700E+01
+ -2.39000E+00 -1.16200E+01
+ -2.32000E+00 -1.10700E+01
+ -2.25000E+00 -1.05100E+01
+ -2.18000E+00 -9.96800E+00
+ -2.11000E+00 -9.41700E+00
+ -2.04000E+00 -8.86700E+00
+ -1.97000E+00 -8.31800E+00
+ -1.90000E+00 -7.76900E+00
+ -1.83000E+00 -7.22000E+00
+ -1.76000E+00 -6.67300E+00
+ -1.69000E+00 -6.12600E+00
+ -1.62000E+00 -5.58100E+00
+ -1.55000E+00 -5.03700E+00
+ -1.48000E+00 -4.49400E+00
+ -1.41000E+00 -3.95400E+00
+ -1.34000E+00 -3.41700E+00
+ -1.27000E+00 -2.88300E+00
+ -1.20000E+00 -2.35400E+00
+ -1.13000E+00 -1.83300E+00
+ -1.06000E+00 -1.32300E+00
+ -9.90000E-01 -8.33700E-01
+ -9.20000E-01 -3.86000E-01
+ -8.50000E-01 -1.01200E-01
+ -7.80000E-01 -2.28700E-02
+ -7.10000E-01 -1.05200E-02
+ -6.40000E-01 -5.86400E-03
+ -5.70000E-01 -2.73700E-03
+ -5.00000E-01 -8.88400E-04
+ -4.30000E-01 -2.13600E-04
+ -3.60000E-01 -9.87700E-05
+ -2.90000E-01 -8.77500E-05
+ -2.20000E-01 -8.69000E-05
+ -1.50000E-01 -8.67700E-05
+ -8.00000E-02 -8.66900E-05
+ -1.00000E-02 -8.66000E-05
+ +6.00000E-02 -8.65100E-05
+ +1.30000E-01 -8.64100E-05
+ +2.00000E-01 -8.63100E-05
+ +2.70000E-01 -8.62000E-05
+ +3.40000E-01 -8.60800E-05
+ +4.10000E-01 -8.59500E-05
+ +4.80000E-01 -8.58100E-05
+ +5.50000E-01 -8.56500E-05
+ +6.20000E-01 -8.54800E-05
+ +6.90000E-01 -8.52800E-05
+ +7.60000E-01 -8.50600E-05
+ +8.30000E-01 -8.47900E-05
+ +9.00000E-01 -8.44800E-05
+ +9.70000E-01 -8.41000E-05
+ +1.04000E+00 -8.36300E-05
+ +1.11000E+00 -8.30400E-05
+ +1.18000E+00 -8.23400E-05
+ +1.25000E+00 -8.15100E-05
+ +1.32000E+00 -8.05400E-05
+ +1.39000E+00 -7.94500E-05
+ +1.46000E+00 -7.82300E-05
+ +1.53000E+00 -7.68700E-05
+ +1.60000E+00 -7.53900E-05
+ +1.67000E+00 -7.37700E-05
+ +1.74000E+00 -7.20100E-05
+ +1.81000E+00 -7.01100E-05
+ +1.88000E+00 -6.80600E-05
+ +1.95000E+00 -6.58300E-05
+ +2.02000E+00 -6.33600E-05
+ +2.09000E+00 -6.04500E-05
+ +2.16000E+00 -5.50400E-05
+ +2.23000E+00 -2.13300E-05
+ +2.30000E+00 -4.39400E-06
+ +2.37000E+00 -5.05000E-07
+ +2.44000E+00 +2.25700E-08
+ +2.51000E+00 +7.97200E-08
+ +2.58000E+00 +8.86300E-08
+ +2.65000E+00 +9.30000E-08
+ +2.72000E+00 +9.69800E-08
+ +2.79000E+00 +1.00900E-07
+ +2.86000E+00 +1.04900E-07
+ +2.93000E+00 +1.08800E-07
+ +3.00000E+00 +1.12700E-07
+ +3.07000E+00 +1.16700E-07
+ +3.14000E+00 +1.20600E-07
+ +3.21000E+00 +1.24500E-07
+ +3.28000E+00 +1.28500E-07
+ +4.28000E+00 +1.28500E-07
+ ] )
.ENDS GND_CLAMP
*
* Power Clamp IV;
.SUBCKT POWER_CLAMP PAD_OUT PC_OUT PC_IN PAD_IN
* Connections       Out+ Out In+ In
APwrClamp %vd(PC_IN,PAD_IN) %vd(PAD_OUT,PC_OUT) transfer
.model transfer pwl2(
+ xy_array = [
+ -4.28000E+00 +8.78000E-02
+ -3.28000E+00 +8.78000E-02
+ -3.24000E+00 +2.97900E-02
+ -3.20000E+00 +7.78800E-03
+ -3.16000E+00 +1.79700E-03
+ -3.12000E+00 +3.98400E-04
+ -3.08000E+00 +8.74100E-05
+ -3.04000E+00 +1.93100E-05
+ -3.00000E+00 +4.46700E-06
+ -2.96000E+00 +1.23500E-06
+ -2.92000E+00 +5.30100E-07
+ -2.88000E+00 +3.74700E-07
+ -2.84000E+00 +3.38800E-07
+ -2.80000E+00 +3.37900E-07
+ -2.76000E+00 +3.37900E-07
+ -2.72000E+00 +3.37900E-07
+ -2.68000E+00 +3.37900E-07
+ -2.64000E+00 +3.37900E-07
+ -2.60000E+00 +3.37900E-07
+ -2.56000E+00 +3.37900E-07
+ -2.52000E+00 +3.37900E-07
+ -2.48000E+00 +3.37900E-07
+ -2.44000E+00 +3.37900E-07
+ -2.40000E+00 +3.37900E-07
+ -2.36000E+00 +3.37900E-07
+ -2.32000E+00 +3.37900E-07
+ -2.28000E+00 +3.37900E-07
+ -2.24000E+00 +3.37900E-07
+ -2.20000E+00 +3.37900E-07
+ -2.16000E+00 +3.37900E-07
+ -2.12000E+00 +3.37900E-07
+ -2.08000E+00 +3.37900E-07
+ -2.04000E+00 +3.37900E-07
+ -2.00000E+00 +3.37900E-07
+ -1.96000E+00 +3.37900E-07
+ -1.92000E+00 +3.37900E-07
+ -1.88000E+00 +3.37900E-07
+ -1.84000E+00 +3.37900E-07
+ -1.80000E+00 +3.37900E-07
+ -1.76000E+00 +3.37900E-07
+ -1.72000E+00 +3.37900E-07
+ -1.68000E+00 +3.37900E-07
+ -1.64000E+00 +3.37900E-07
+ -1.60000E+00 +3.37900E-07
+ -1.56000E+00 +3.37900E-07
+ -1.52000E+00 +3.37900E-07
+ -1.48000E+00 +3.37900E-07
+ -1.44000E+00 +3.37900E-07
+ -1.40000E+00 +3.37900E-07
+ -1.36000E+00 +3.37900E-07
+ -1.32000E+00 +3.37900E-07
+ -1.28000E+00 +3.37900E-07
+ -1.24000E+00 +3.37900E-07
+ -1.20000E+00 +3.37900E-07
+ -1.16000E+00 +3.37900E-07
+ -1.12000E+00 +3.37900E-07
+ -1.08000E+00 +3.37900E-07
+ -1.04000E+00 +3.37900E-07
+ -1.00000E+00 +3.37900E-07
+ -9.60000E-01 +3.37900E-07
+ -9.20000E-01 +3.37900E-07
+ -8.80000E-01 +3.37900E-07
+ -8.40000E-01 +3.37900E-07
+ -8.00000E-01 +3.37900E-07
+ -7.60000E-01 +3.37900E-07
+ -7.20000E-01 +3.37900E-07
+ -6.80000E-01 +3.37900E-07
+ -6.40000E-01 +3.37900E-07
+ -6.00000E-01 +3.37900E-07
+ -5.60000E-01 +3.37900E-07
+ -5.20000E-01 +3.37900E-07
+ -4.80000E-01 +3.37900E-07
+ -4.40000E-01 +3.37900E-07
+ -4.00000E-01 +3.37900E-07
+ -3.60000E-01 +3.37900E-07
+ -3.20000E-01 +3.37900E-07
+ -2.80000E-01 +3.37900E-07
+ -2.40000E-01 +1.85400E-07
+ -2.00000E-01 +1.49900E-07
+ -1.60000E-01 +1.40500E-07
+ -1.20000E-01 +1.36700E-07
+ -8.00000E-02 +1.34200E-07
+ -4.00000E-02 +1.31900E-07
+ +0.00000E+00 +1.29600E-07
+ +1.00000E+00 +1.29600E-07
+ ] )
.ENDS POWER_CLAMP
*
.ENDS ad2147x_196_ibs_PDUSDGZ_TT
*************************************
************************************
** Library generated Wed Oct 21 17:37:08 2015
** The IBIS file was C:\Myproject\project2\si_lib\ibis\ad2147x_196_ibs.ibs
**
** Copyright (c) Signal Integrity Software 2012, All Rights Reserved
************************************
.SUBCKT ad2147x_196_ibs_PDUSDGZ_SS PC_REF GC_REF PAD Z
*
*
* C_comp
CCOMP PAD GC_REF +3.55890E-12 IC=0
*
* Input Receiver
BZ Z 0 V= V(PAD) > 1.400 ? 1.0 : 0.0
RZZ Z  0 1MEG
*
* Ground Clamp Structure;
XGC GC_Current 0 PAD GC_REF GND_CLAMP
BGC PAD GC_REF I= V(GC_Current)
*
* Power Clamp Structure;
XPC PC_Current 0 PC_REF PAD POWER_CLAMP
BPC PAD PC_REF I= V(PC_Current)
*
* Ground Clamp IV;
.SUBCKT GND_CLAMP PAD_OUT GC_OUT PAD_IN GC_IN
* Connections     Out+ Out In+ In
AGndClamp %vd(PAD_IN,GC_IN) %vd(PAD_OUT,GC_OUT) transfer
.model transfer pwl2(
+ xy_array = [
+ -4.30000E+00 -1.42700E+01
+ -3.30000E+00 -1.42700E+01
+ -3.23000E+00 -1.38700E+01
+ -3.16000E+00 -1.34700E+01
+ -3.09000E+00 -1.30700E+01
+ -3.02000E+00 -1.26700E+01
+ -2.95000E+00 -1.22700E+01
+ -2.88000E+00 -1.18700E+01
+ -2.81000E+00 -1.14700E+01
+ -2.74000E+00 -1.10800E+01
+ -2.67000E+00 -1.06800E+01
+ -2.60000E+00 -1.02800E+01
+ -2.53000E+00 -9.88200E+00
+ -2.46000E+00 -9.48400E+00
+ -2.39000E+00 -9.08500E+00
+ -2.32000E+00 -8.68700E+00
+ -2.25000E+00 -8.28900E+00
+ -2.18000E+00 -7.89100E+00
+ -2.11000E+00 -7.49400E+00
+ -2.04000E+00 -7.09700E+00
+ -1.97000E+00 -6.70000E+00
+ -1.90000E+00 -6.30400E+00
+ -1.83000E+00 -5.90800E+00
+ -1.76000E+00 -5.51200E+00
+ -1.69000E+00 -5.11800E+00
+ -1.62000E+00 -4.72300E+00
+ -1.55000E+00 -4.33000E+00
+ -1.48000E+00 -3.93800E+00
+ -1.41000E+00 -3.54700E+00
+ -1.34000E+00 -3.15800E+00
+ -1.27000E+00 -2.77100E+00
+ -1.20000E+00 -2.38600E+00
+ -1.13000E+00 -2.00500E+00
+ -1.06000E+00 -1.62900E+00
+ -9.90000E-01 -1.26000E+00
+ -9.20000E-01 -9.01500E-01
+ -8.50000E-01 -5.61600E-01
+ -7.80000E-01 -2.57900E-01
+ -7.10000E-01 -7.50600E-02
+ -6.40000E-01 -1.70000E-02
+ -5.70000E-01 -4.59000E-03
+ -5.00000E-01 -1.46100E-03
+ -4.30000E-01 -4.08800E-04
+ -3.60000E-01 -1.15900E-04
+ -2.90000E-01 -6.02400E-05
+ -2.20000E-01 -5.16600E-05
+ -1.50000E-01 -5.04500E-05
+ -8.00000E-02 -5.02500E-05
+ -1.00000E-02 -5.01800E-05
+ +6.00000E-02 -5.01100E-05
+ +1.30000E-01 -5.00500E-05
+ +2.00000E-01 -4.99800E-05
+ +2.70000E-01 -4.99100E-05
+ +3.40000E-01 -4.98300E-05
+ +4.10000E-01 -4.97400E-05
+ +4.80000E-01 -4.96400E-05
+ +5.50000E-01 -4.95300E-05
+ +6.20000E-01 -4.94100E-05
+ +6.90000E-01 -4.92800E-05
+ +7.60000E-01 -4.91100E-05
+ +8.30000E-01 -4.89200E-05
+ +9.00000E-01 -4.86800E-05
+ +9.70000E-01 -4.83900E-05
+ +1.04000E+00 -4.80200E-05
+ +1.11000E+00 -4.75700E-05
+ +1.18000E+00 -4.70200E-05
+ +1.25000E+00 -4.63800E-05
+ +1.32000E+00 -4.56500E-05
+ +1.39000E+00 -4.48200E-05
+ +1.46000E+00 -4.38900E-05
+ +1.53000E+00 -4.28600E-05
+ +1.60000E+00 -4.17100E-05
+ +1.67000E+00 -4.04400E-05
+ +1.74000E+00 -3.90000E-05
+ +1.81000E+00 -3.72500E-05
+ +1.88000E+00 -3.38900E-05
+ +1.95000E+00 -1.36300E-05
+ +2.02000E+00 -3.46100E-06
+ +2.09000E+00 -6.42600E-07
+ +2.16000E+00 -5.34100E-08
+ +2.23000E+00 +5.49800E-08
+ +2.30000E+00 +7.66800E-08
+ +2.37000E+00 +8.35800E-08
+ +2.44000E+00 +8.79800E-08
+ +2.51000E+00 +9.20200E-08
+ +2.58000E+00 +9.59900E-08
+ +2.65000E+00 +9.99600E-08
+ +2.72000E+00 +1.03900E-07
+ +2.79000E+00 +1.07900E-07
+ +2.86000E+00 +1.11800E-07
+ +2.93000E+00 +1.15800E-07
+ +3.00000E+00 +1.20800E-07
+ +3.07000E+00 +1.32400E-07
+ +3.14000E+00 +1.60400E-07
+ +3.21000E+00 +1.60400E-07
+ +3.28000E+00 +1.60400E-07
+ +4.28000E+00 +1.60400E-07
+ ] )
.ENDS GND_CLAMP
*
* Power Clamp IV;
.SUBCKT POWER_CLAMP PAD_OUT PC_OUT PC_IN PAD_IN
* Connections       Out+ Out In+ In
APwrClamp %vd(PC_IN,PAD_IN) %vd(PAD_OUT,PC_OUT) transfer
.model transfer pwl2(
+ xy_array = [
+ -4.28000E+00 +3.55900E-07
+ -3.28000E+00 +3.55900E-07
+ -3.24000E+00 +3.48600E-07
+ -3.20000E+00 +3.44400E-07
+ -3.16000E+00 +3.41100E-07
+ -3.12000E+00 +3.38200E-07
+ -3.08000E+00 +3.35500E-07
+ -3.04000E+00 +3.32700E-07
+ -3.00000E+00 +3.30000E-07
+ -2.96000E+00 +3.27300E-07
+ -2.92000E+00 +3.24500E-07
+ -2.88000E+00 +3.21900E-07
+ -2.84000E+00 +3.19200E-07
+ -2.80000E+00 +3.16500E-07
+ -2.76000E+00 +3.13800E-07
+ -2.72000E+00 +3.11200E-07
+ -2.68000E+00 +3.08600E-07
+ -2.64000E+00 +3.05900E-07
+ -2.60000E+00 +3.03300E-07
+ -2.56000E+00 +3.00700E-07
+ -2.52000E+00 +2.98100E-07
+ -2.48000E+00 +2.95500E-07
+ -2.44000E+00 +2.93000E-07
+ -2.40000E+00 +2.90400E-07
+ -2.36000E+00 +2.87800E-07
+ -2.32000E+00 +2.85300E-07
+ -2.28000E+00 +2.82800E-07
+ -2.24000E+00 +2.80200E-07
+ -2.20000E+00 +2.77700E-07
+ -2.16000E+00 +2.75200E-07
+ -2.12000E+00 +2.72700E-07
+ -2.08000E+00 +2.70200E-07
+ -2.04000E+00 +2.67700E-07
+ -2.00000E+00 +2.65200E-07
+ -1.96000E+00 +2.62700E-07
+ -1.92000E+00 +2.60200E-07
+ -1.88000E+00 +2.59700E-07
+ -1.84000E+00 +2.59700E-07
+ -1.80000E+00 +2.59700E-07
+ -1.76000E+00 +2.59700E-07
+ -1.72000E+00 +2.59700E-07
+ -1.68000E+00 +2.59700E-07
+ -1.64000E+00 +2.59700E-07
+ -1.60000E+00 +2.59700E-07
+ -1.56000E+00 +2.59700E-07
+ -1.52000E+00 +2.59700E-07
+ -1.48000E+00 +2.59700E-07
+ -1.44000E+00 +2.59700E-07
+ -1.40000E+00 +2.59700E-07
+ -1.36000E+00 +2.59700E-07
+ -1.32000E+00 +2.59700E-07
+ -1.28000E+00 +2.59700E-07
+ -1.24000E+00 +2.59700E-07
+ -1.20000E+00 +2.59700E-07
+ -1.16000E+00 +2.59700E-07
+ -1.12000E+00 +2.59700E-07
+ -1.08000E+00 +2.59700E-07
+ -1.04000E+00 +2.59700E-07
+ -1.00000E+00 +2.59700E-07
+ -9.60000E-01 +2.59700E-07
+ -9.20000E-01 +2.59700E-07
+ -8.80000E-01 +2.59700E-07
+ -8.40000E-01 +2.59700E-07
+ -8.00000E-01 +2.59700E-07
+ -7.60000E-01 +2.59700E-07
+ -7.20000E-01 +2.59700E-07
+ -6.80000E-01 +2.59700E-07
+ -6.40000E-01 +2.59700E-07
+ -6.00000E-01 +2.59700E-07
+ -5.60000E-01 +2.59700E-07
+ -5.20000E-01 +2.59700E-07
+ -4.80000E-01 +2.59700E-07
+ -4.40000E-01 +2.59700E-07
+ -4.00000E-01 +2.59700E-07
+ -3.60000E-01 +2.59700E-07
+ -3.20000E-01 +2.59700E-07
+ -2.80000E-01 +2.59700E-07
+ -2.40000E-01 +2.59700E-07
+ -2.00000E-01 +2.59700E-07
+ -1.60000E-01 +2.39900E-07
+ -1.20000E-01 +1.62000E-07
+ -8.00000E-02 +1.35700E-07
+ -4.00000E-02 +1.25800E-07
+ +0.00000E+00 +1.20800E-07
+ +1.00000E+00 +1.20800E-07
+ ] )
.ENDS POWER_CLAMP
*
.ENDS ad2147x_196_ibs_PDUSDGZ_SS
*************************************
************************************
** Library generated Wed Oct 21 17:37:08 2015
** The IBIS file was C:\Myproject\project2\si_lib\ibis\ad2147x_196_ibs.ibs
**
** Copyright (c) Signal Integrity Software 2012, All Rights Reserved
************************************
.SUBCKT ad2147x_196_ibs_PDT12DGZ_FF PU_REF PD_REF PAD A EN PC_REF GC_REF
*
*
* C_comp
CCOMP PAD GC_REF +8.23000E-14 IC=0
*
RA A 0 1Meg
VINIT Vini 0    dc 200n
RETIR ETR  Vini 1G
CETR  ETR  0    1n
BETR  0    ETR  I= Time < 40p ? 0. : 1n
RETIF ETF  Vini 1G
CETF  ETF  0    1n
BETF  0    ETF  I= Time < 40p ? 0. : 1n
RETR ETR 0 R= V(A) > .5 ? 1G  : .02
RETF ETF 0 R= V(A) > .5 ? .02 : 1G
*
* Ground Clamp Structure;
XGC GC_Current 0 PAD GC_REF GND_CLAMP
BGC PAD GC_REF I= V(GC_Current)
*
* Power Clamp Structure;
XPC PC_Current 0 PC_REF PAD POWER_CLAMP
BPC PAD PC_REF I= V(PC_Current)
*
* Pull Down Structure;
AKT_PD_R ETR KT_PD_R KT_PD_R_T
AKT_PD_F ETF KT_PD_F KT_PD_F_T
.model KT_PD_R_T pwl2(
+ xy_array = [ 0. 1.001 10p 1.001 20p 1.001 160p 1. 180p .998 200p .996 220p .995 240p .993 260p .992 280p .99 300p .988 320p .985
+ 326.957p .965 333.913p .944 340.87p .925 347.826p .907 354.783p .891 361.739p .874 368.696p .858 375.652p .842 382.609p .826 389.565p .812
+ 396.522p .797 403.478p .784 410.435p .771 417.391p .758 424.348p .745 431.304p .732 438.261p .72 445.217p .709 452.174p .698 459.13p .683
+ 466.087p .681 473.043p .669 480p .644 485.714p .618 491.429p .59 497.143p .562 502.857p .535 508.571p .511 514.286p .488 520p .468
+ 525.714p .449 531.429p .432 537.143p .415 542.857p .399 548.571p .384 554.286p .369 560p .355 565.714p .342 571.429p .329 577.143p .317
+ 582.857p .306 588.571p .295 594.286p .285 600p .274 605.714p .264 611.429p .254 617.143p .244 622.857p .234 628.571p .224 634.286p .216
+ 640p .209 649.697p .204 659.394p .2 669.091p .195 678.788p .189 688.485p .184 698.182p .179 707.879p .174 717.576p .168 727.273p .163
+ 736.97p .157 746.667p .152 756.364p .146 766.061p .14 775.758p .134 785.455p .128 795.152p .123 836.364p .122 843.636p .12 850.909p .118
+ 858.182p .116 865.455p .113 872.727p .11 880p .106 887.273p .102 894.545p .097 901.818p .092 909.091p .086 916.364p .08 923.636p .073
+ 930.909p .066 938.182p .059 945.454p .051 952.727p .044 960p .039 966.4p .037 985.6p .036 998.4p .034 1.011n .033 1.024n .032
+ 1.037n .03 1.05n .029 1.062n .027 1.075n .025 1.082n .024 1.088n .023 1.094n .021 1.101n .02 1.107n .019 1.114n .017
+ 1.12n .016 1.15n .015 1.18n .014 1.21n .013 1.24n .011 1.27n .01 1.3n .008 1.34n .007 1.38n .006 1.42n .005
+ 1.47n .004 1.55n .003 1.64n .002 2.26n .001 2.27n .001 2.28n 0. 102.28n 0. ]  )
.model KT_PD_F_T pwl2(
+ xy_array = [ 0. -.002 10p 1.001 20p -.003 40p -.005 60p -.007 80p -.009 100p -.011 110p -.012 120p -.013 140p -.015 150p -.016 160p -.017
+ 170p -.019 180p -.02 190p -.022 200p -.023 210p -.024 220p -.025 230p -.026 240p -.027 260p -.029 280p -.031
+ 300p -.032 333.913p -.031 340.87p -.03 347.826p -.029 354.783p -.028 368.696p -.026 382.609p -.024 396.522p -.023 410.435p -.022 424.348p -.021
+ 438.261p -.019 459.13p -.018 473.043p -.016 480p -.014 485.714p -.009 491.429p -.004 497.143p .002 502.857p .008 508.571p .013 514.286p .019
+ 520p .024 525.714p .029 531.429p .035 537.143p .04 542.857p .045 548.571p .05 554.286p .054 560p .059 565.714p .063 571.429p .068
+ 577.143p .072 582.857p .076 588.571p .08 594.286p .083 600p .087 605.714p .091 611.429p .094 617.143p .095 622.857p .096 628.571p .1
+ 634.286p .106 640p .115 649.697p .14 659.394p .169 669.091p .2 678.788p .229 688.485p .254 698.182p .279 707.879p .303 717.576p .328
+ 727.273p .349 736.97p .371 746.667p .388 756.364p .407 766.061p .428 775.758p .451 785.455p .472 795.152p .489 807.273p .512 814.545p .524
+ 821.818p .533 829.091p .542 836.364p .549 843.636p .557 850.909p .566 858.182p .577 865.455p .589 872.727p .602 880p .615 887.273p .629
+ 894.545p .643 901.818p .655 909.091p .667 916.364p .68 923.636p .694 930.909p .711 938.182p .731 945.454p .746 952.727p .764 960p .779
+ 966.4p .784 972.8p .79 979.2p .795 985.6p .801 992p .806 998.4p .812 1.005n .817 1.011n .823 1.018n .828 1.024n .834
+ 1.03n .84 1.037n .846 1.043n .852 1.05n .858 1.056n .864 1.062n .87 1.069n .876 1.075n .882 1.082n .889 1.088n .895
+ 1.094n .902 1.101n .909 1.107n .916 1.114n .922 1.12n .927 1.13n .93 1.14n .933 1.15n .934 1.16n .936 1.17n .938
+ 1.18n .94 1.19n .942 1.2n .944 1.21n .946 1.22n .948 1.23n .95 1.24n .952 1.25n .954 1.26n .956 1.27n .958
+ 1.28n .959 1.29n .961 1.3n .963 1.31n .964 1.32n .966 1.33n .967 1.34n .969 1.35n .97 1.36n .972 1.37n .973
+ 1.38n .975 1.39n .976 1.4n .978 1.41n .979 1.42n .981 1.43n .982 1.44n .984 1.45n .985 1.47n .986 1.49n .987
+ 1.51n .989 1.53n .99 1.55n .991 1.57n .992 1.59n .993 1.62n .994 1.7n .995 1.79n .996 1.92n .997 2.11n .998
+ 2.26n .999 2.27n .999 2.28n 1. 102.28n 1. ] )
*
BPD PAD PD_REF I= V(EN) < .5 ? 0 : ; Off
+ V(A) > .5 ? V(PD_Current)*V(KT_PD_R) : V(PD_Current)*V(KT_PD_F)
XPD PD_Current 0 PAD PD_REF PULL_DOWN
*
* Pullup Structure;
AKT_PU_R ETR KT_PU_R KT_PU_R_T
AKT_PU_F ETF KT_PU_F KT_PU_F_T
.model KT_PU_R_T pwl2(
+ xy_array = [ 0. 0. 10p 0. 20p 0. 160p -.001 190p -.002 220p -.003 250p -.004 280p -.006 310p -.007 333.913p -.008 361.739p -.009 389.565p -.01
+ 424.348p -.011 459.13p -.012 542.857p -.011 622.857p -.01 644.849p -.009 654.546p -.007 664.242p -.006 673.939p -.005 683.636p -.003 693.333p -.002
+ 703.03p -540.299u 712.727p 714.544u 722.424p .002 732.121p .003 741.818p .004 751.515p .005 761.212p .007 770.909p .008 780.606p .009 795.152p .012
+ 807.273p .025 814.545p .035 821.818p .047 829.091p .057 836.364p .068 843.636p .078 850.909p .088 858.182p .098 865.455p .107 872.727p .116
+ 880p .125 887.273p .134 894.545p .142 901.818p .149 909.091p .157 916.364p .163 923.636p .169 930.909p .175 938.182p .181 945.454p .186
+ 952.727p .191 960p .198 966.4p .205 972.8p .213 979.2p .222 985.6p .231 992p .24 998.4p .247 1.005n .257 1.011n .268
+ 1.018n .278 1.024n .288 1.03n .298 1.037n .309 1.043n .32 1.05n .331 1.056n .343 1.062n .357 1.069n .371 1.075n .387
+ 1.082n .403 1.088n .42 1.094n .437 1.101n .454 1.107n .471 1.114n .486 1.12n .5 1.13n .521 1.14n .537 1.15n .549
+ 1.16n .559 1.17n .568 1.18n .579 1.19n .594 1.2n .611 1.21n .629 1.22n .646 1.23n .66 1.24n .677 1.25n .695
+ 1.26n .714 1.27n .735 1.28n .755 1.29n .772 1.3n .783 1.31n .791 1.32n .798 1.33n .806 1.34n .813 1.35n .821
+ 1.36n .829 1.37n .838 1.38n .846 1.39n .855 1.4n .863 1.41n .872 1.42n .881 1.43n .89 1.44n .898 1.45n .906
+ 1.46n .911 1.47n .915 1.48n .919 1.49n .922 1.5n .926 1.51n .93 1.52n .934 1.53n .938 1.54n .942 1.55n .946
+ 1.56n .95 1.57n .954 1.58n .959 1.59n .963 1.6n .967 1.61n .97 1.62n .972 1.63n .973 1.64n .975 1.65n .976
+ 1.66n .977 1.67n .978 1.68n .98 1.69n .981 1.7n .982 1.71n .984 1.72n .985 1.73n .986 1.74n .987 1.75n .989
+ 1.76n .99 1.78n .991 1.82n .993 1.86n .994 1.9n .995 1.94n .996 1.99n .997 2.04n .998 2.09n .999 2.15n 1.
+ 2.21n 1.002 2.26n 1.003 2.27n 1.002 2.28n 1. 102.28n 1. ] )
.model KT_PU_F_T pwl2(
+ xy_array = [ 0. 1. 20p .998 40p .993 50p .998 70p .995 80p .991 90p .988 110p .994 120p .997 140p .988 150p .968
+ 160p .938 170p .901 180p .86 190p .82 200p .783 210p .751 220p .724 230p .698 240p .673 250p .648
+ 260p .627 270p .601 280p .581 290p .566 300p .55 310p .53 320p .504 326.957p .485 333.913p .464 340.87p .443
+ 347.826p .423 354.783p .404 361.739p .385 368.696p .369 375.652p .353 382.609p .339 389.565p .326 396.522p .313 403.478p .301 410.435p .289
+ 417.391p .278 424.348p .267 431.304p .256 438.261p .246 445.217p .237 452.174p .228 459.13p .218 466.087p .21 473.043p .203 480p .197
+ 485.714p .195 491.429p .193 502.857p .189 508.571p .187 514.286p .184 520p .182 525.714p .18 531.429p .177 537.143p .175 542.857p .172
+ 548.571p .169 554.286p .166 560p .163 565.714p .159 571.429p .155 577.143p .151 582.857p .147 588.571p .142 594.286p .137 600p .132
+ 605.714p .128 611.429p .123 617.143p .117 622.857p .112 628.571p .107 634.286p .104 644.849p .102 664.242p .104 678.788p .106 703.03p .103
+ 712.727p .099 722.424p .096 732.121p .091 741.818p .086 751.515p .08 761.212p .073 770.909p .066 780.606p .059 790.303p .05 800p .043
+ 821.818p .04 843.636p .037 865.455p .034 887.273p .031 901.818p .029 916.364p .027 930.909p .024 945.454p .022 960p .019 998.4p .017
+ 1.043n .015 1.088n .013 1.13n .011 1.19n .009 1.25n .007 1.34n .005 1.52n .003 1.87n 476.902u 2.26n 105.703u 2.27n 103.382u
+ 2.28n 0. 102.28n 0. ] )
*
BPU PAD PU_REF I= V(EN) < .5 ? 0 : ; Off
+ V(A) > .5 ? V(PU_Current)*V(KT_PU_R) : V(PU_Current)*V(KT_PU_F)
XPU PU_Current 0 PU_REF PAD PULL_UP
*
* Ground Clamp IV;
.SUBCKT GND_CLAMP PAD_OUT GC_OUT PAD_IN GC_IN
* Connections     Out+ Out In+ In
AGndClamp %vd(PAD_IN,GC_IN) %vd(PAD_OUT,GC_OUT) transfer
.model transfer pwl2(
+ xy_array = [
+ -4.30000E+00 -2.52300E+01
+ -3.30000E+00 -2.52300E+01
+ -3.23000E+00 -2.44600E+01
+ -3.16000E+00 -2.37000E+01
+ -3.09000E+00 -2.29300E+01
+ -3.02000E+00 -2.21600E+01
+ -2.95000E+00 -2.14000E+01
+ -2.88000E+00 -2.06300E+01
+ -2.81000E+00 -1.98700E+01
+ -2.74000E+00 -1.91000E+01
+ -2.67000E+00 -1.83400E+01
+ -2.60000E+00 -1.75700E+01
+ -2.53000E+00 -1.68100E+01
+ -2.46000E+00 -1.60500E+01
+ -2.39000E+00 -1.52800E+01
+ -2.32000E+00 -1.45200E+01
+ -2.25000E+00 -1.37600E+01
+ -2.18000E+00 -1.29900E+01
+ -2.11000E+00 -1.22300E+01
+ -2.04000E+00 -1.14700E+01
+ -1.97000E+00 -1.07100E+01
+ -1.90000E+00 -9.95400E+00
+ -1.83000E+00 -9.19500E+00
+ -1.76000E+00 -8.43800E+00
+ -1.69000E+00 -7.68100E+00
+ -1.62000E+00 -6.92600E+00
+ -1.55000E+00 -6.17400E+00
+ -1.48000E+00 -5.42300E+00
+ -1.41000E+00 -4.67600E+00
+ -1.34000E+00 -3.93400E+00
+ -1.27000E+00 -3.19800E+00
+ -1.20000E+00 -2.47100E+00
+ -1.13000E+00 -1.75800E+00
+ -1.06000E+00 -1.07300E+00
+ -9.90000E-01 -4.52000E-01
+ -9.20000E-01 -9.54200E-02
+ -8.50000E-01 -2.88100E-02
+ -7.80000E-01 -1.90200E-02
+ -7.10000E-01 -1.23900E-02
+ -6.40000E-01 -6.91900E-03
+ -5.70000E-01 -2.86000E-03
+ -5.00000E-01 -6.90000E-04
+ -4.30000E-01 -6.72400E-05
+ -3.60000E-01 -3.12000E-06
+ -2.90000E-01 -2.46500E-07
+ -2.20000E-01 -1.53700E-07
+ -1.50000E-01 -1.44700E-07
+ -8.00000E-02 -1.38100E-07
+ -1.00000E-02 -1.31500E-07
+ +6.00000E-02 -1.25000E-07
+ +1.30000E-01 -1.18500E-07
+ +2.00000E-01 -1.12000E-07
+ +2.70000E-01 -1.05500E-07
+ +3.40000E-01 -9.90500E-08
+ +4.10000E-01 -9.26000E-08
+ +4.80000E-01 -8.61700E-08
+ +5.50000E-01 -7.97400E-08
+ +6.20000E-01 -7.33300E-08
+ +6.90000E-01 -6.69200E-08
+ +7.60000E-01 -6.05200E-08
+ +8.30000E-01 -5.41300E-08
+ +9.00000E-01 -4.77400E-08
+ +9.70000E-01 -4.13600E-08
+ +1.04000E+00 -3.49800E-08
+ +1.11000E+00 -2.86000E-08
+ +1.18000E+00 -2.22300E-08
+ +1.25000E+00 -1.58600E-08
+ +1.32000E+00 -9.48300E-09
+ +1.39000E+00 -3.11200E-09
+ +1.46000E+00 +3.25900E-09
+ +1.53000E+00 +9.63000E-09
+ +1.60000E+00 +1.60000E-08
+ +1.67000E+00 +2.23700E-08
+ +1.74000E+00 +2.87400E-08
+ +1.81000E+00 +3.51100E-08
+ +1.88000E+00 +4.14800E-08
+ +1.95000E+00 +4.78500E-08
+ +2.02000E+00 +5.42200E-08
+ +2.09000E+00 +6.05900E-08
+ +2.16000E+00 +6.69600E-08
+ +2.23000E+00 +7.33300E-08
+ +2.30000E+00 +7.97000E-08
+ +2.37000E+00 +8.60700E-08
+ +2.44000E+00 +9.24400E-08
+ +2.51000E+00 +9.88100E-08