| "2015.07rc1" 45198633 1187311740 prefer_vt_curves
************************************
** Library generated Thu Sep 24 20:12:01 2015
** The IBIS file was C:\SiSoft\2015.07\share\si_lib\ibis\generic_3_3v.ibs
**
** Copyright (c) Signal Integrity Software 2012, All Rights Reserved
************************************
.SUBCKT generic_3_3v_3_3V_I_FF PC_REF GC_REF PAD Z
*
*
* C_comp
CCOMP PAD GC_REF +2.50200E-12 IC=0
*
* Input Receiver
BZ Z 0 V= V(PAD) > 1.650 ? 1.0 : 0.0
RZZ Z  0 1MEG
*
* Ground Clamp Structure;
XGC GC_Current 0 PAD GC_REF GND_CLAMP
BGC PAD GC_REF I= V(GC_Current)
*
* Power Clamp Structure;
XPC PC_Current 0 PC_REF PAD POWER_CLAMP
BPC PAD PC_REF I= V(PC_Current)
*
* Ground Clamp IV;
.SUBCKT GND_CLAMP PAD_OUT GC_OUT PAD_IN GC_IN
* Connections     Out+ Out In+ In
AGndClamp %vd(PAD_IN,GC_IN) %vd(PAD_OUT,GC_OUT) transfer
.model transfer pwl2(
+ xy_array = [
+ -4.24692E+00 -5.30816E-01
+ -3.24692E+00 -5.30816E-01
+ -3.01510E+00 -4.78182E-01
+ -2.59941E+00 -3.83993E-01
+ -2.14376E+00 -2.81173E-01
+ -1.94391E+00 -2.36300E-01
+ -1.84799E+00 -2.14830E-01
+ -1.76005E+00 -1.95209E-01
+ -1.66413E+00 -1.73869E-01
+ -1.57619E+00 -1.54393E-01
+ -1.49626E+00 -1.36771E-01
+ -1.45629E+00 -1.27993E-01
+ -1.41632E+00 -1.19256E-01
+ -1.37635E+00 -1.10551E-01
+ -1.34437E+00 -1.03613E-01
+ -1.31240E+00 -9.67025E-02
+ -1.30440E+00 -9.49807E-02
+ -1.27243E+00 -8.81222E-02
+ -1.24045E+00 -8.13047E-02
+ -1.23246E+00 -7.96062E-02
+ -1.20848E+00 -7.45282E-02
+ -1.20048E+00 -7.28422E-02
+ -1.17650E+00 -6.78171E-02
+ -1.16851E+00 -6.61529E-02
+ -1.14452E+00 -6.11836E-02
+ -1.12854E+00 -5.78944E-02
+ -1.12054E+00 -5.62557E-02
+ -1.11255E+00 -5.46262E-02
+ -1.09656E+00 -5.13956E-02
+ -1.08857E+00 -4.97946E-02
+ -1.08057E+00 -4.82025E-02
+ -1.06459E+00 -4.50320E-02
+ -1.04860E+00 -4.18929E-02
+ -1.04060E+00 -4.03536E-02
+ -1.03261E+00 -3.88321E-02
+ -1.02462E+00 -3.73180E-02
+ -1.00863E+00 -3.43322E-02
+ -1.00063E+00 -3.28673E-02
+ -9.92640E-01 -3.14153E-02
+ -9.84646E-01 -2.99849E-02
+ -9.76652E-01 -2.85985E-02
+ -9.68658E-01 -2.72212E-02
+ -9.60664E-01 -2.58574E-02
+ -9.52670E-01 -2.45463E-02
+ -9.44677E-01 -2.32799E-02
+ -9.36683E-01 -2.20369E-02
+ -9.28689E-01 -2.08164E-02
+ -9.20695E-01 -1.96768E-02
+ -9.12701E-01 -1.85732E-02
+ -9.04707E-01 -1.75190E-02
+ -8.96713E-01 -1.65238E-02
+ -8.88719E-01 -1.55791E-02
+ -8.80725E-01 -1.47122E-02
+ -8.72731E-01 -1.39138E-02
+ -8.64738E-01 -1.31757E-02
+ -8.56744E-01 -1.24922E-02
+ -8.48750E-01 -1.18614E-02
+ -8.40756E-01 -1.13110E-02
+ -8.32762E-01 -1.08025E-02
+ -8.24768E-01 -1.03347E-02
+ -8.16774E-01 -9.90344E-03
+ -8.08780E-01 -9.50183E-03
+ -8.00786E-01 -9.13473E-03
+ -7.92792E-01 -8.78781E-03
+ -7.84799E-01 -8.45655E-03
+ -7.76805E-01 -8.13843E-03
+ -7.68811E-01 -7.83161E-03
+ -7.60817E-01 -7.53584E-03
+ -7.52823E-01 -7.24728E-03
+ -7.44829E-01 -6.96453E-03
+ -7.36835E-01 -6.68706E-03
+ -7.28841E-01 -6.41451E-03
+ -7.20847E-01 -6.14684E-03
+ -7.04860E-01 -5.62282E-03
+ -6.88872E-01 -5.11224E-03
+ -6.80878E-01 -4.86252E-03
+ -6.64890E-01 -4.37403E-03
+ -6.56896E-01 -4.13627E-03
+ -6.40908E-01 -3.67143E-03
+ -6.24921E-01 -3.22729E-03
+ -6.16927E-01 -3.01254E-03
+ -6.08933E-01 -2.80792E-03
+ -5.76957E-01 -2.02680E-03
+ -5.68963E-01 -1.84247E-03
+ -5.36988E-01 -1.21965E-03
+ -5.28994E-01 -1.06898E-03
+ -4.97018E-01 -6.37710E-04
+ -4.89024E-01 -5.35333E-04
+ -4.81030E-01 -4.65447E-04
+ -4.49055E-01 -2.37846E-04
+ -4.41061E-01 -1.88560E-04
+ -4.33067E-01 -1.73119E-04
+ -3.05164E-01 -1.21279E-05
+ -2.97171E-01 -7.20500E-06
+ -8.93291E-02 -3.42073E-06
+ +2.70396E-01 -1.91873E-06
+ +7.50030E-01 +0.00000E+00
+ +6.53755E+00 +0.00000E+00
+ +7.53755E+00 +0.00000E+00
+ ] )
.ENDS GND_CLAMP
*
* Power Clamp IV;
.SUBCKT POWER_CLAMP PAD_OUT PC_OUT PC_IN PAD_IN
* Connections       Out+ Out In+ In
APwrClamp %vd(PC_IN,PAD_IN) %vd(PAD_OUT,PC_OUT) transfer
.model transfer pwl2(
+ xy_array = [
+ -4.24692E+00 +5.26559E-01
+ -3.24692E+00 +5.26559E-01
+ -3.14798E+00 +5.04412E-01
+ -2.75220E+00 +4.15839E-01
+ -2.47736E+00 +3.54493E-01
+ -2.24649E+00 +3.03098E-01
+ -2.02661E+00 +2.54310E-01
+ -1.94965E+00 +2.37284E-01
+ -1.85071E+00 +2.15437E-01
+ -1.74077E+00 +1.91234E-01
+ -1.64183E+00 +1.69533E-01
+ -1.57587E+00 +1.55122E-01
+ -1.54288E+00 +1.47935E-01
+ -1.47692E+00 +1.33605E-01
+ -1.44394E+00 +1.26472E-01
+ -1.38897E+00 +1.14618E-01
+ -1.37798E+00 +1.12256E-01
+ -1.33400E+00 +1.02842E-01
+ -1.30102E+00 +9.58134E-02
+ -1.27903E+00 +9.11510E-02
+ -1.25705E+00 +8.65011E-02
+ -1.24605E+00 +8.41811E-02
+ -1.23506E+00 +8.18721E-02
+ -1.21307E+00 +7.72698E-02
+ -1.19108E+00 +7.26812E-02
+ -1.16910E+00 +6.81371E-02
+ -1.15810E+00 +6.58733E-02
+ -1.14711E+00 +6.36156E-02
+ -1.12512E+00 +5.91297E-02
+ -1.11413E+00 +5.69094E-02
+ -1.10313E+00 +5.46981E-02
+ -1.09214E+00 +5.24957E-02
+ -1.08115E+00 +5.03057E-02
+ -1.07015E+00 +4.81400E-02
+ -1.05916E+00 +4.59884E-02
+ -1.04816E+00 +4.38431E-02
+ -1.03717E+00 +4.17291E-02
+ -1.02618E+00 +3.96425E-02
+ -1.01518E+00 +3.75686E-02
+ -1.00419E+00 +3.55190E-02
+ -9.93195E-01 +3.35277E-02
+ -9.82202E-01 +3.15431E-02
+ -9.71208E-01 +2.96129E-02
+ -9.60214E-01 +2.77320E-02
+ -9.49220E-01 +2.58887E-02
+ -9.38226E-01 +2.41203E-02
+ -9.27233E-01 +2.23904E-02
+ -9.16239E-01 +2.07719E-02
+ -9.05245E-01 +1.92199E-02
+ -8.94251E-01 +1.77786E-02
+ -8.83257E-01 +1.64399E-02
+ -8.72264E-01 +1.52007E-02
+ -8.61270E-01 +1.41012E-02
+ -8.50276E-01 +1.31234E-02
+ -8.39282E-01 +1.22599E-02
+ -8.28289E-01 +1.15131E-02
+ -8.17295E-01 +1.08656E-02
+ -8.06301E-01 +1.02927E-02
+ -7.95307E-01 +9.78196E-03
+ -7.84313E-01 +9.32050E-03
+ -7.73320E-01 +8.89712E-03
+ -7.62326E-01 +8.49781E-03
+ -7.51332E-01 +8.11686E-03
+ -7.40338E-01 +7.75079E-03
+ -7.29345E-01 +7.39551E-03
+ -7.18351E-01 +7.04974E-03
+ -7.07357E-01 +6.71099E-03
+ -6.96363E-01 +6.37776E-03
+ -6.85369E-01 +6.05001E-03
+ -6.74376E-01 +5.72705E-03
+ -6.63382E-01 +5.40917E-03
+ -6.41394E-01 +4.78719E-03
+ -6.19407E-01 +4.18739E-03
+ -6.08413E-01 +3.89651E-03
+ -5.97419E-01 +3.61208E-03
+ -5.64438E-01 +2.80868E-03
+ -5.53444E-01 +2.54805E-03
+ -5.42450E-01 +2.31635E-03
+ -4.98475E-01 +1.43842E-03
+ -4.87481E-01 +1.22957E-03
+ -4.76488E-01 +1.06119E-03
+ -4.65494E-01 +8.97611E-04
+ -4.54500E-01 +7.56170E-04
+ -4.43506E-01 +6.45514E-04
+ -4.10525E-01 +3.30434E-04
+ -3.99531E-01 +2.72511E-04
+ -2.56612E-01 +2.17831E-05
+ -2.45618E-01 +1.50982E-05
+ +1.50158E-01 +1.07997E-05
+ +5.89909E-01 +9.04046E-06
+ +9.85685E-01 +7.45725E-06
+ +1.38146E+00 +5.87415E-06
+ +1.83221E+00 +4.07117E-06
+ +2.24997E+00 +2.57225E-14
+ +2.54997E+00 +0.00000E+00
+ +6.54692E+00 +0.00000E+00
+ +7.54692E+00 +0.00000E+00
+ ] )
.ENDS POWER_CLAMP
*
.ENDS generic_3_3v_3_3V_I_FF
*************************************
************************************
** Library generated Thu Sep 24 20:12:01 2015
** The IBIS file was C:\SiSoft\2015.07\share\si_lib\ibis\generic_3_3v.ibs
**
** Copyright (c) Signal Integrity Software 2012, All Rights Reserved
************************************
.SUBCKT generic_3_3v_3_3V_I_TT PC_REF GC_REF PAD Z
*
*
* C_comp
CCOMP PAD GC_REF +3.00200E-12 IC=0
*
* Input Receiver
BZ Z 0 V= V(PAD) > 1.650 ? 1.0 : 0.0
RZZ Z  0 1MEG
*
* Ground Clamp Structure;
XGC GC_Current 0 PAD GC_REF GND_CLAMP
BGC PAD GC_REF I= V(GC_Current)
*
* Power Clamp Structure;
XPC PC_Current 0 PC_REF PAD POWER_CLAMP
BPC PAD PC_REF I= V(PC_Current)
*
* Ground Clamp IV;
.SUBCKT GND_CLAMP PAD_OUT GC_OUT PAD_IN GC_IN
* Connections     Out+ Out In+ In
AGndClamp %vd(PAD_IN,GC_IN) %vd(PAD_OUT,GC_OUT) transfer
.model transfer pwl2(
+ xy_array = [
+ -4.24692E+00 -5.30816E-01
+ -3.24692E+00 -5.30816E-01
+ -3.01510E+00 -4.78182E-01
+ -2.59941E+00 -3.83993E-01
+ -2.14376E+00 -2.81173E-01
+ -1.94391E+00 -2.36300E-01
+ -1.84799E+00 -2.14830E-01
+ -1.76005E+00 -1.95209E-01
+ -1.66413E+00 -1.73869E-01
+ -1.57619E+00 -1.54393E-01
+ -1.49626E+00 -1.36771E-01
+ -1.45629E+00 -1.27993E-01
+ -1.41632E+00 -1.19256E-01
+ -1.37635E+00 -1.10551E-01
+ -1.34437E+00 -1.03613E-01
+ -1.31240E+00 -9.67025E-02
+ -1.30440E+00 -9.49807E-02
+ -1.27243E+00 -8.81222E-02
+ -1.24045E+00 -8.13047E-02
+ -1.23246E+00 -7.96062E-02
+ -1.20848E+00 -7.45282E-02
+ -1.20048E+00 -7.28422E-02
+ -1.17650E+00 -6.78171E-02
+ -1.16851E+00 -6.61529E-02
+ -1.14452E+00 -6.11836E-02
+ -1.12854E+00 -5.78944E-02
+ -1.12054E+00 -5.62557E-02
+ -1.11255E+00 -5.46262E-02
+ -1.09656E+00 -5.13956E-02
+ -1.08857E+00 -4.97946E-02
+ -1.08057E+00 -4.82025E-02
+ -1.06459E+00 -4.50320E-02
+ -1.04860E+00 -4.18929E-02
+ -1.04060E+00 -4.03536E-02
+ -1.03261E+00 -3.88321E-02
+ -1.02462E+00 -3.73180E-02
+ -1.00863E+00 -3.43322E-02
+ -1.00063E+00 -3.28673E-02
+ -9.92640E-01 -3.14153E-02
+ -9.84646E-01 -2.99849E-02
+ -9.76652E-01 -2.85985E-02
+ -9.68658E-01 -2.72212E-02
+ -9.60664E-01 -2.58574E-02
+ -9.52670E-01 -2.45463E-02
+ -9.44677E-01 -2.32799E-02
+ -9.36683E-01 -2.20369E-02
+ -9.28689E-01 -2.08164E-02
+ -9.20695E-01 -1.96768E-02
+ -9.12701E-01 -1.85732E-02
+ -9.04707E-01 -1.75190E-02
+ -8.96713E-01 -1.65238E-02
+ -8.88719E-01 -1.55791E-02
+ -8.80725E-01 -1.47122E-02
+ -8.72731E-01 -1.39138E-02
+ -8.64738E-01 -1.31757E-02
+ -8.56744E-01 -1.24922E-02
+ -8.48750E-01 -1.18614E-02
+ -8.40756E-01 -1.13110E-02
+ -8.32762E-01 -1.08025E-02
+ -8.24768E-01 -1.03347E-02
+ -8.16774E-01 -9.90344E-03
+ -8.08780E-01 -9.50183E-03
+ -8.00786E-01 -9.13473E-03
+ -7.92792E-01 -8.78781E-03
+ -7.84799E-01 -8.45655E-03
+ -7.76805E-01 -8.13843E-03
+ -7.68811E-01 -7.83161E-03
+ -7.60817E-01 -7.53584E-03
+ -7.52823E-01 -7.24728E-03
+ -7.44829E-01 -6.96453E-03
+ -7.36835E-01 -6.68706E-03
+ -7.28841E-01 -6.41451E-03
+ -7.20847E-01 -6.14684E-03
+ -7.04860E-01 -5.62282E-03
+ -6.88872E-01 -5.11224E-03
+ -6.80878E-01 -4.86252E-03
+ -6.64890E-01 -4.37403E-03
+ -6.56896E-01 -4.13627E-03
+ -6.40908E-01 -3.67143E-03
+ -6.24921E-01 -3.22729E-03
+ -6.16927E-01 -3.01254E-03
+ -6.08933E-01 -2.80792E-03
+ -5.76957E-01 -2.02680E-03
+ -5.68963E-01 -1.84247E-03
+ -5.36988E-01 -1.21965E-03
+ -5.28994E-01 -1.06898E-03
+ -4.97018E-01 -6.37710E-04
+ -4.89024E-01 -5.35333E-04
+ -4.81030E-01 -4.65447E-04
+ -4.49055E-01 -2.37846E-04
+ -4.41061E-01 -1.88560E-04
+ -4.33067E-01 -1.73119E-04
+ -3.05164E-01 -1.21279E-05
+ -2.97171E-01 -7.20500E-06
+ -8.93291E-02 -3.42073E-06
+ +2.70396E-01 -1.91873E-06
+ +7.50030E-01 +0.00000E+00
+ +6.53755E+00 +0.00000E+00
+ +7.53755E+00 +0.00000E+00
+ ] )
.ENDS GND_CLAMP
*
* Power Clamp IV;
.SUBCKT POWER_CLAMP PAD_OUT PC_OUT PC_IN PAD_IN
* Connections       Out+ Out In+ In
APwrClamp %vd(PC_IN,PAD_IN) %vd(PAD_OUT,PC_OUT) transfer
.model transfer pwl2(
+ xy_array = [
+ -4.24692E+00 +5.26583E-01
+ -3.24692E+00 +5.26583E-01
+ -3.14798E+00 +5.04398E-01
+ -2.75220E+00 +4.15838E-01
+ -2.47736E+00 +3.54492E-01
+ -2.24649E+00 +3.03097E-01
+ -2.02661E+00 +2.54309E-01
+ -1.94965E+00 +2.37281E-01
+ -1.85071E+00 +2.15434E-01
+ -1.74077E+00 +1.91232E-01
+ -1.64183E+00 +1.69532E-01
+ -1.57587E+00 +1.55121E-01
+ -1.54288E+00 +1.47933E-01
+ -1.47692E+00 +1.33604E-01
+ -1.44394E+00 +1.26471E-01
+ -1.38897E+00 +1.14616E-01
+ -1.37798E+00 +1.12255E-01
+ -1.33400E+00 +1.02840E-01
+ -1.30102E+00 +9.58122E-02
+ -1.27903E+00 +9.11498E-02
+ -1.25705E+00 +8.64999E-02
+ -1.24605E+00 +8.41800E-02
+ -1.23506E+00 +8.18710E-02
+ -1.21307E+00 +7.72686E-02
+ -1.19108E+00 +7.26799E-02
+ -1.16910E+00 +6.81359E-02
+ -1.15810E+00 +6.58721E-02
+ -1.14711E+00 +6.36145E-02
+ -1.12512E+00 +5.91286E-02
+ -1.11413E+00 +5.69082E-02
+ -1.10313E+00 +5.46970E-02
+ -1.09214E+00 +5.24944E-02
+ -1.08115E+00 +5.03044E-02
+ -1.07015E+00 +4.81387E-02
+ -1.05916E+00 +4.59871E-02
+ -1.04816E+00 +4.38419E-02
+ -1.03717E+00 +4.17279E-02
+ -1.02618E+00 +3.96413E-02
+ -1.01518E+00 +3.75675E-02
+ -1.00419E+00 +3.55179E-02
+ -9.93195E-01 +3.35266E-02
+ -9.82202E-01 +3.15419E-02
+ -9.71208E-01 +2.96118E-02
+ -9.60214E-01 +2.77309E-02
+ -9.49220E-01 +2.58875E-02
+ -9.38226E-01 +2.41191E-02
+ -9.27233E-01 +2.23892E-02
+ -9.16239E-01 +2.07707E-02
+ -9.05245E-01 +1.92186E-02
+ -8.94251E-01 +1.77773E-02
+ -8.83257E-01 +1.64387E-02
+ -8.72264E-01 +1.51995E-02
+ -8.61270E-01 +1.41001E-02
+ -8.50276E-01 +1.31222E-02
+ -8.39282E-01 +1.22586E-02
+ -8.28289E-01 +1.15119E-02
+ -8.17295E-01 +1.08640E-02
+ -8.06301E-01 +1.02915E-02
+ -7.95307E-01 +9.78078E-03
+ -7.84313E-01 +9.31930E-03
+ -7.73320E-01 +8.89592E-03
+ -7.62326E-01 +8.49661E-03
+ -7.51332E-01 +8.11566E-03
+ -7.40338E-01 +7.74960E-03
+ -7.29345E-01 +7.39431E-03
+ -7.18351E-01 +7.04856E-03
+ -7.07357E-01 +6.70979E-03
+ -6.96363E-01 +6.37656E-03
+ -6.85369E-01 +6.04882E-03
+ -6.74376E-01 +5.72586E-03
+ -6.63382E-01 +5.40797E-03
+ -6.41394E-01 +4.78601E-03
+ -6.19407E-01 +4.18621E-03
+ -6.08413E-01 +3.89532E-03
+ -5.97419E-01 +3.61089E-03
+ -5.64438E-01 +2.80749E-03
+ -5.53444E-01 +2.54686E-03
+ -5.42450E-01 +2.31515E-03
+ -4.98475E-01 +1.43722E-03
+ -4.87481E-01 +1.22837E-03
+ -4.76488E-01 +1.05999E-03
+ -4.65494E-01 +8.96413E-04
+ -4.54500E-01 +7.54973E-04
+ -4.43506E-01 +6.44316E-04
+ -4.10525E-01 +3.29237E-04
+ -3.99531E-01 +2.71312E-04
+ -2.56612E-01 +2.05832E-05
+ -2.45618E-01 +1.38982E-05
+ +1.50158E-01 +9.59971E-06
+ +5.89909E-01 +7.84046E-06
+ +9.85685E-01 +6.25725E-06
+ +1.38146E+00 +4.67415E-06
+ +1.83221E+00 +2.87117E-06
+ +2.24997E+00 +1.20010E-06
+ +2.54997E+00 +0.00000E+00
+ +6.54692E+00 +0.00000E+00
+ +7.54692E+00 +0.00000E+00
+ ] )
.ENDS POWER_CLAMP
*
.ENDS generic_3_3v_3_3V_I_TT
*************************************
************************************
** Library generated Thu Sep 24 20:12:01 2015
** The IBIS file was C:\SiSoft\2015.07\share\si_lib\ibis\generic_3_3v.ibs
**
** Copyright (c) Signal Integrity Software 2012, All Rights Reserved
************************************
.SUBCKT generic_3_3v_3_3V_I_SS PC_REF GC_REF PAD Z
*
*
* C_comp
CCOMP PAD GC_REF +3.50200E-12 IC=0
*
* Input Receiver
BZ Z 0 V= V(PAD) > 1.650 ? 1.0 : 0.0
RZZ Z  0 1MEG
*
* Ground Clamp Structure;
XGC GC_Current 0 PAD GC_REF GND_CLAMP
BGC PAD GC_REF I= V(GC_Current)
*
* Power Clamp Structure;
XPC PC_Current 0 PC_REF PAD POWER_CLAMP
BPC PAD PC_REF I= V(PC_Current)
*
* Ground Clamp IV;
.SUBCKT GND_CLAMP PAD_OUT GC_OUT PAD_IN GC_IN
* Connections     Out+ Out In+ In
AGndClamp %vd(PAD_IN,GC_IN) %vd(PAD_OUT,GC_OUT) transfer
.model transfer pwl2(
+ xy_array = [
+ -4.24692E+00 -5.30816E-01
+ -3.24692E+00 -5.30816E-01
+ -3.01510E+00 -4.78182E-01
+ -2.59941E+00 -3.83993E-01
+ -2.14376E+00 -2.81173E-01
+ -1.94391E+00 -2.36300E-01
+ -1.84799E+00 -2.14830E-01
+ -1.76005E+00 -1.95209E-01
+ -1.66413E+00 -1.73869E-01
+ -1.57619E+00 -1.54393E-01
+ -1.49626E+00 -1.36771E-01
+ -1.45629E+00 -1.27993E-01
+ -1.41632E+00 -1.19256E-01
+ -1.37635E+00 -1.10551E-01
+ -1.34437E+00 -1.03613E-01
+ -1.31240E+00 -9.67025E-02
+ -1.30440E+00 -9.49807E-02
+ -1.27243E+00 -8.81222E-02
+ -1.24045E+00 -8.13047E-02
+ -1.23246E+00 -7.96062E-02
+ -1.20848E+00 -7.45282E-02
+ -1.20048E+00 -7.28422E-02
+ -1.17650E+00 -6.78171E-02
+ -1.16851E+00 -6.61529E-02
+ -1.14452E+00 -6.11836E-02
+ -1.12854E+00 -5.78944E-02
+ -1.12054E+00 -5.62557E-02
+ -1.11255E+00 -5.46262E-02
+ -1.09656E+00 -5.13956E-02
+ -1.08857E+00 -4.97946E-02
+ -1.08057E+00 -4.82025E-02
+ -1.06459E+00 -4.50320E-02
+ -1.04860E+00 -4.18929E-02
+ -1.04060E+00 -4.03536E-02
+ -1.03261E+00 -3.88321E-02
+ -1.02462E+00 -3.73180E-02
+ -1.00863E+00 -3.43322E-02
+ -1.00063E+00 -3.28673E-02
+ -9.92640E-01 -3.14153E-02
+ -9.84646E-01 -2.99849E-02
+ -9.76652E-01 -2.85985E-02
+ -9.68658E-01 -2.72212E-02
+ -9.60664E-01 -2.58574E-02
+ -9.52670E-01 -2.45463E-02
+ -9.44677E-01 -2.32799E-02
+ -9.36683E-01 -2.20369E-02
+ -9.28689E-01 -2.08164E-02
+ -9.20695E-01 -1.96768E-02
+ -9.12701E-01 -1.85732E-02
+ -9.04707E-01 -1.75190E-02
+ -8.96713E-01 -1.65238E-02
+ -8.88719E-01 -1.55791E-02
+ -8.80725E-01 -1.47122E-02
+ -8.72731E-01 -1.39138E-02
+ -8.64738E-01 -1.31757E-02
+ -8.56744E-01 -1.24922E-02
+ -8.48750E-01 -1.18614E-02
+ -8.40756E-01 -1.13110E-02
+ -8.32762E-01 -1.08025E-02
+ -8.24768E-01 -1.03347E-02
+ -8.16774E-01 -9.90344E-03
+ -8.08780E-01 -9.50183E-03
+ -8.00786E-01 -9.13473E-03
+ -7.92792E-01 -8.78781E-03
+ -7.84799E-01 -8.45655E-03
+ -7.76805E-01 -8.13843E-03
+ -7.68811E-01 -7.83161E-03
+ -7.60817E-01 -7.53584E-03
+ -7.52823E-01 -7.24728E-03
+ -7.44829E-01 -6.96453E-03
+ -7.36835E-01 -6.68706E-03
+ -7.28841E-01 -6.41451E-03
+ -7.20847E-01 -6.14684E-03
+ -7.04860E-01 -5.62282E-03
+ -6.88872E-01 -5.11224E-03
+ -6.80878E-01 -4.86252E-03
+ -6.64890E-01 -4.37403E-03
+ -6.56896E-01 -4.13627E-03
+ -6.40908E-01 -3.67143E-03
+ -6.24921E-01 -3.22729E-03
+ -6.16927E-01 -3.01254E-03
+ -6.08933E-01 -2.80792E-03
+ -5.76957E-01 -2.02680E-03
+ -5.68963E-01 -1.84247E-03
+ -5.36988E-01 -1.21965E-03
+ -5.28994E-01 -1.06898E-03
+ -4.97018E-01 -6.37710E-04
+ -4.89024E-01 -5.35333E-04
+ -4.81030E-01 -4.65447E-04
+ -4.49055E-01 -2.37846E-04
+ -4.41061E-01 -1.88560E-04
+ -4.33067E-01 -1.73119E-04
+ -3.05164E-01 -1.21279E-05
+ -2.97171E-01 -7.20500E-06
+ -8.93291E-02 -3.42073E-06
+ +2.70396E-01 -1.91873E-06
+ +7.50030E-01 +0.00000E+00
+ +6.53755E+00 +0.00000E+00
+ +7.53755E+00 +0.00000E+00
+ ] )
.ENDS GND_CLAMP
*
* Power Clamp IV;
.SUBCKT POWER_CLAMP PAD_OUT PC_OUT PC_IN PAD_IN
* Connections       Out+ Out In+ In
APwrClamp %vd(PC_IN,PAD_IN) %vd(PAD_OUT,PC_OUT) transfer
.model transfer pwl2(
+ xy_array = [
+ -4.24692E+00 +5.26581E-01
+ -3.24692E+00 +5.26581E-01
+ -3.14798E+00 +5.04397E-01
+ -2.75220E+00 +4.15837E-01
+ -2.47736E+00 +3.54491E-01
+ -2.24649E+00 +3.03096E-01
+ -2.02661E+00 +2.54308E-01
+ -1.94965E+00 +2.37281E-01
+ -1.85071E+00 +2.15433E-01
+ -1.74077E+00 +1.91232E-01
+ -1.64183E+00 +1.69531E-01
+ -1.57587E+00 +1.55120E-01
+ -1.54288E+00 +1.47932E-01
+ -1.47692E+00 +1.33603E-01
+ -1.44394E+00 +1.26470E-01
+ -1.38897E+00 +1.14615E-01
+ -1.37798E+00 +1.12253E-01
+ -1.33400E+00 +1.02839E-01
+ -1.30102E+00 +9.58111E-02
+ -1.27903E+00 +9.11486E-02
+ -1.25705E+00 +8.64988E-02
+ -1.24605E+00 +8.41788E-02
+ -1.23506E+00 +8.18698E-02
+ -1.21307E+00 +7.72675E-02
+ -1.19108E+00 +7.26789E-02
+ -1.16910E+00 +6.81348E-02
+ -1.15810E+00 +6.58709E-02
+ -1.14711E+00 +6.36132E-02
+ -1.12512E+00 +5.91273E-02
+ -1.11413E+00 +5.69071E-02
+ -1.10313E+00 +5.46958E-02
+ -1.09214E+00 +5.24933E-02
+ -1.08115E+00 +5.03033E-02
+ -1.07015E+00 +4.81376E-02
+ -1.05916E+00 +4.59860E-02
+ -1.04816E+00 +4.38408E-02
+ -1.03717E+00 +4.17267E-02
+ -1.02618E+00 +3.96402E-02
+ -1.01518E+00 +3.75663E-02
+ -1.00419E+00 +3.55168E-02
+ -9.93195E-01 +3.35254E-02
+ -9.82202E-01 +3.15408E-02
+ -9.71208E-01 +2.96106E-02
+ -9.60214E-01 +2.77297E-02
+ -9.49220E-01 +2.58863E-02
+ -9.38226E-01 +2.41179E-02
+ -9.27233E-01 +2.23880E-02
+ -9.16239E-01 +2.07695E-02
+ -9.05245E-01 +1.92175E-02
+ -8.94251E-01 +1.77762E-02
+ -8.83257E-01 +1.64375E-02
+ -8.72264E-01 +1.51983E-02
+ -8.61270E-01 +1.40989E-02
+ -8.50276E-01 +1.31210E-02
+ -8.39282E-01 +1.22575E-02
+ -8.28289E-01 +1.15108E-02
+ -8.17295E-01 +1.08628E-02
+ -8.06301E-01 +1.02903E-02
+ -7.95307E-01 +9.77958E-03
+ -7.84313E-01 +9.31811E-03
+ -7.73320E-01 +8.89473E-03
+ -7.62326E-01 +8.49542E-03
+ -7.51332E-01 +8.11446E-03
+ -7.40338E-01 +7.74840E-03
+ -7.29345E-01 +7.39312E-03
+ -7.18351E-01 +7.04736E-03
+ -7.07357E-01 +6.70860E-03
+ -6.96363E-01 +6.37537E-03
+ -6.85369E-01 +6.04763E-03
+ -6.74376E-01 +5.72466E-03
+ -6.63382E-01 +5.40677E-03
+ -6.41394E-01 +4.78481E-03
+ -6.19407E-01 +4.18501E-03
+ -6.08413E-01 +3.89412E-03
+ -5.97419E-01 +3.60969E-03
+ -5.64438E-01 +2.80629E-03
+ -5.53444E-01 +2.54566E-03
+ -5.42450E-01 +2.31395E-03
+ -4.98475E-01 +1.43603E-03
+ -4.87481E-01 +1.22718E-03
+ -4.76488E-01 +1.05879E-03
+ -4.65494E-01 +8.95217E-04
+ -4.54500E-01 +7.53775E-04
+ -4.43506E-01 +6.43117E-04
+ -4.10525E-01 +3.28038E-04
+ -3.99531E-01 +2.70112E-04
+ -2.56612E-01 +1.93834E-05
+ -2.45618E-01 +1.26982E-05
+ +1.50158E-01 +8.39971E-06
+ +5.89909E-01 +6.64046E-06
+ +9.85685E-01 +5.05726E-06
+ +1.38146E+00 +3.47415E-06
+ +1.83221E+00 +1.67117E-06
+ +2.24997E+00 +0.00000E+00
+ +2.54997E+00 +0.00000E+00
+ +6.54692E+00 +0.00000E+00
+ +7.54692E+00 +0.00000E+00
+ ] )
.ENDS POWER_CLAMP
*
.ENDS generic_3_3v_3_3V_I_SS
*************************************
************************************
** Library generated Thu Sep 24 20:12:01 2015
** The IBIS file was C:\SiSoft\2015.07\share\si_lib\ibis\generic_3_3v.ibs
**
** Copyright (c) Signal Integrity Software 2012, All Rights Reserved
************************************
.SUBCKT generic_3_3v_3_3V_IO_fast_10ohm_FF PU_REF PD_REF PAD A EN Z PC_REF GC_REF
*
*
* C_comp
CCOMP PAD GC_REF +2.50200E-12 IC=0
*
RA A 0 1Meg
VINIT Vini 0    dc 200n
RETIR ETR  Vini 1G
CETR  ETR  0    1n
BETR  0    ETR  I= Time < 40p ? 0. : 1n
RETIF ETF  Vini 1G
CETF  ETF  0    1n
BETF  0    ETF  I= Time < 40p ? 0. : 1n
RETR ETR 0 R= V(A) > .5 ? 1G  : .02
RETF ETF 0 R= V(A) > .5 ? .02 : 1G
* Input Receiver
BZ Z 0 V= V(PAD) > 1.650 ? 1.0 : 0.0
RZZ Z  0 1MEG
*
* Ground Clamp Structure;
XGC GC_Current 0 PAD GC_REF GND_CLAMP
BGC PAD GC_REF I= V(GC_Current)
*
* Power Clamp Structure;
XPC PC_Current 0 PC_REF PAD POWER_CLAMP
BPC PAD PC_REF I= V(PC_Current)
*
* Pull Down Structure;
AKT_PD_R ETR KT_PD_R KT_PD_R_T
AKT_PD_F ETF KT_PD_F KT_PD_F_T
.model KT_PD_R_T pwl2(
+ xy_array = [ 0. .997 10p .998 20p .994 25p .991 35p .984 40p .98 45p .975 50p .97 60p .958 65p .951 70p .944
+ 75p .936 80p .928 85p .919 90p .91 95p .9 100p .89 105p .878 110p .867 120p .843 125p .83
+ 130p .817 135p .804 140p .791 145p .778 150p .765 155p .752 160p .739 165p .726 170p .713 175p .699
+ 180p .686 185p .673 190p .66 195p .646 200p .633 205p .62 210p .606 215p .593 220p .58 225p .567
+ 230p .553 240p .527 245p .513 250p .5 255p .487 260p .473 265p .46 270p .447 275p .433 280p .42
+ 285p .407 290p .393 295p .38 300p .367 305p .353 310p .34 315p .327 320p .313 325p .3 330p .287
+ 335p .274 340p .26 345p .247 350p .233 355p .22 360p .207 365p .193 370p .18 375p .167 380p .154
+ 385p .142 390p .13 395p .118 400p .107 405p .096 410p .086 415p .077 420p .068 425p .061 430p .052
+ 435p .044 440p .038 445p .032 450p .026 455p .021 460p .017 465p .013 475p .006 480p .004 485p .002
+ 490p 636.13u 520p .002 545p 435.216u 560p -733.937u 570p -.002 590p -387.009u 605p -127.366u 610p 0. 615p 0. 100.615n 0. ]  )
.model KT_PD_F_T pwl2(
+ xy_array = [ 0. .003 5p .997 10p .002 20p .006 25p .009 35p .016 40p .02 45p .025 50p .03 60p .042 65p .049 70p .056
+ 75p .064 80p .072 85p .081 90p .09 95p .1 100p .111 105p .122 110p .133 120p .157 125p .17
+ 130p .183 135p .196 140p .209 145p .222 150p .235 155p .248 160p .261 165p .274 170p .287 175p .301
+ 180p .314 185p .327 190p .34 195p .354 200p .367 205p .38 210p .394 215p .407 220p .42 225p .434
+ 230p .447 240p .473 245p .487 250p .5 255p .513 260p .527 265p .54 270p .553 275p .567 280p .58
+ 285p .593 290p .607 295p .62 300p .633 305p .647 310p .66 315p .673 320p .687 325p .7 330p .713
+ 335p .727 340p .74 345p .753 350p .767 355p .78 360p .793 365p .807 370p .82 375p .833 380p .846
+ 385p .858 390p .871 395p .882 400p .893 405p .904 410p .913 415p .923 420p .932 425p .942 430p .947
+ 435p .956 440p .962 445p .969 450p .974 455p .979 460p .983 465p .987 475p .994 480p .996 485p .998
+ 490p .999 500p 1.001 605p 1. 610p 1. 615p 1. 100.615n 1. ] )
*
BPD PAD PD_REF I= V(EN) < .5 ? 0 : ; Off
+ V(A) > .5 ? V(PD_Current)*V(KT_PD_R) : V(PD_Current)*V(KT_PD_F)
XPD PD_Current 0 PAD PD_REF PULL_DOWN
*
* Pullup Structure;
AKT_PU_R ETR KT_PU_R KT_PU_R_T
AKT_PU_F ETF KT_PU_F KT_PU_F_T
.model KT_PU_R_T pwl2(
+ xy_array = [ 0. 0. 5p 0. 10p .002 20p .006 25p .009 35p .016 40p .02 45p .025 50p .03 60p .042 65p .049 70p .056
+ 75p .064 80p .072 85p .081 90p .09 95p .1 100p .111 105p .122 110p .133 120p .157 125p .17
+ 130p .183 135p .196 140p .209 145p .222 150p .235 155p .248 160p .261 165p .274 170p .287 175p .301
+ 180p .314 185p .327 190p .34 195p .354 200p .367 205p .38 210p .394 215p .407 220p .42 225p .433
+ 230p .447 240p .473 245p .487 250p .5 255p .513 260p .527 265p .54 270p .554 275p .567 280p .58
+ 285p .593 290p .607 295p .62 300p .633 305p .647 310p .66 315p .673 320p .687 325p .7 330p .713
+ 335p .727 340p .74 345p .753 350p .767 355p .78 360p .794 365p .807 370p .82 375p .833 380p .846
+ 385p .858 390p .87 395p .882 400p .893 405p .904 410p .914 415p .923 420p .932 425p .939 430p .948
+ 435p .956 440p .963 445p .968 450p .974 455p .979 460p .983 465p .987 475p .994 480p .996 485p .998
+ 490p .999 520p .998 545p 1. 560p 1.001 570p 1.002 590p 1. 605p 1. 610p 1. 615p 1. 100.615n 1. ] )
.model KT_PU_F_T pwl2(
+ xy_array = [ 0. 1. 10p .998 20p .994 25p .991 35p .984 40p .98 45p .975 50p .97 60p .958 65p .951 70p .944
+ 75p .936 80p .928 85p .919 90p .91 95p .9 100p .89 105p .878 110p .867 120p .843 125p .83
+ 130p .817 135p .804 140p .791 145p .778 150p .765 155p .752 160p .739 165p .726 170p .713 175p .699
+ 180p .686 185p .673 190p .66 195p .646 200p .633 205p .62 210p .606 215p .593 220p .58 225p .567
+ 230p .553 240p .527 245p .513 250p .5 255p .487 260p .473 265p .46 270p .447 275p .433 280p .42
+ 285p .407 290p .393 295p .38 300p .367 305p .353 310p .34 315p .327 320p .313 325p .3 330p .287
+ 335p .273 340p .26 345p .247 350p .233 355p .22 360p .207 365p .194 370p .18 375p .167 380p .154
+ 385p .142 390p .13 395p .118 400p .107 405p .096 410p .087 415p .077 420p .068 425p .058 430p .053
+ 435p .045 440p .038 445p .032 450p .026 455p .021 460p .017 465p .013 475p .006 480p .004 490p 782.666u
+ 605p 0. 610p 0. 615p 0. 100.615n 0. ] )
*
BPU PAD PU_REF I= V(EN) < .5 ? 0 : ; Off
+ V(A) > .5 ? V(PU_Current)*V(KT_PU_R) : V(PU_Current)*V(KT_PU_F)
XPU PU_Current 0 PU_REF PAD PULL_UP
*
* Ground Clamp IV;
.SUBCKT GND_CLAMP PAD_OUT GC_OUT PAD_IN GC_IN
* Connections     Out+ Out In+ In
AGndClamp %vd(PAD_IN,GC_IN) %vd(PAD_OUT,GC_OUT) transfer
.model transfer pwl2(
+ xy_array = [
+ -4.05935E+00 -4.88226E-01
+ -3.05935E+00 -4.88226E-01
+ -2.75324E+00 -4.18812E-01
+ -2.39018E+00 -3.36706E-01
+ -2.13390E+00 -2.78953E-01
+ -1.84915E+00 -2.15092E-01
+ -1.71389E+00 -1.84929E-01
+ -1.57864E+00 -1.54932E-01
+ -1.50033E+00 -1.37666E-01
+ -1.45762E+00 -1.28285E-01
+ -1.41490E+00 -1.18948E-01
+ -1.37931E+00 -1.11195E-01
+ -1.34372E+00 -1.03471E-01
+ -1.30812E+00 -9.57780E-02
+ -1.30100E+00 -9.42473E-02
+ -1.27253E+00 -8.81423E-02
+ -1.23693E+00 -8.05553E-02
+ -1.20846E+00 -7.45212E-02
+ -1.20134E+00 -7.30229E-02
+ -1.17998E+00 -6.85447E-02
+ -1.17287E+00 -6.70596E-02
+ -1.14439E+00 -6.11549E-02
+ -1.12303E+00 -5.67641E-02
+ -1.11591E+00 -5.53083E-02
+ -1.09456E+00 -5.09933E-02
+ -1.08744E+00 -4.95651E-02
+ -1.07320E+00 -4.67362E-02
+ -1.06608E+00 -4.53271E-02
+ -1.05185E+00 -4.25299E-02
+ -1.04473E+00 -4.11465E-02
+ -1.03761E+00 -3.97805E-02
+ -1.03049E+00 -3.84297E-02
+ -1.02337E+00 -3.70817E-02
+ -1.01625E+00 -3.57523E-02
+ -1.00913E+00 -3.44271E-02
+ -1.00201E+00 -3.31122E-02
+ -9.94895E-01 -3.18226E-02
+ -9.87776E-01 -3.05426E-02
+ -9.80657E-01 -2.92919E-02
+ -9.73538E-01 -2.80604E-02
+ -9.66420E-01 -2.68362E-02
+ -9.59301E-01 -2.56243E-02
+ -9.52182E-01 -2.44659E-02
+ -9.45063E-01 -2.33391E-02
+ -9.37944E-01 -2.22289E-02
+ -9.30826E-01 -2.11306E-02
+ -9.23707E-01 -2.01019E-02
+ -9.16588E-01 -1.91078E-02
+ -9.09469E-01 -1.81376E-02
+ -9.02350E-01 -1.72212E-02
+ -8.95231E-01 -1.63529E-02
+ -8.88113E-01 -1.55268E-02
+ -8.80994E-01 -1.47442E-02
+ -8.73875E-01 -1.40211E-02
+ -8.66756E-01 -1.33492E-02
+ -8.59637E-01 -1.27267E-02
+ -8.52519E-01 -1.21538E-02
+ -8.45400E-01 -1.16307E-02
+ -8.38281E-01 -1.11486E-02
+ -8.31162E-01 -1.07012E-02
+ -8.24043E-01 -1.02873E-02
+ -8.16925E-01 -9.91057E-03
+ -8.09806E-01 -9.55655E-03
+ -8.02687E-01 -9.22108E-03
+ -7.95568E-01 -8.90254E-03
+ -7.88449E-01 -8.60325E-03
+ -7.81331E-01 -8.31518E-03
+ -7.74212E-01 -8.03666E-03
+ -7.67093E-01 -7.76648E-03
+ -7.59974E-01 -7.50445E-03
+ -7.52855E-01 -7.24747E-03
+ -7.45736E-01 -6.99508E-03
+ -7.31499E-01 -6.50412E-03
+ -7.17261E-01 -6.02649E-03
+ -6.95905E-01 -5.33430E-03
+ -6.81667E-01 -4.88629E-03
+ -6.67430E-01 -4.44943E-03
+ -6.60311E-01 -4.23532E-03
+ -6.38954E-01 -3.61503E-03
+ -6.24717E-01 -3.22070E-03
+ -6.17598E-01 -3.02951E-03
+ -6.10479E-01 -2.84483E-03
+ -5.82004E-01 -2.14661E-03
+ -5.74885E-01 -1.97206E-03
+ -5.67766E-01 -1.81852E-03
+ -5.39291E-01 -1.26351E-03
+ -5.32172E-01 -1.12786E-03
+ -5.25053E-01 -1.01512E-03
+ -4.96578E-01 -6.30836E-04
+ -4.89459E-01 -5.44871E-04
+ -4.82340E-01 -4.71952E-04
+ -4.46746E-01 -2.19635E-04
+ -4.39628E-01 -1.89494E-04
+ -4.32509E-01 -1.71409E-04
+ -3.04370E-01 -1.05634E-05
+ +1.44115E-01 -1.42393E-06
+ +5.00055E-01 +0.00000E+00
+ +6.35116E+00 +0.00000E+00
+ +7.35116E+00 +0.00000E+00
+ ] )
.ENDS GND_CLAMP
*
* Power Clamp IV;
.SUBCKT POWER_CLAMP PAD_OUT PC_OUT PC_IN PAD_IN
* Connections       Out+ Out In+ In
APwrClamp %vd(PC_IN,PAD_IN) %vd(PAD_OUT,PC_OUT) transfer
.model transfer pwl2(
+ xy_array = [
+ -4.05935E+00 +4.84581E-01
+ -3.05935E+00 +4.84581E-01
+ -2.74803E+00 +4.14908E-01
+ -2.47006E+00 +3.52868E-01
+ -2.24769E+00 +3.03368E-01
+ -2.02532E+00 +2.54025E-01
+ -1.94749E+00 +2.36806E-01
+ -1.81407E+00 +2.07360E-01
+ -1.73624E+00 +1.90239E-01
+ -1.63617E+00 +1.68297E-01
+ -1.56946E+00 +1.53726E-01
+ -1.53610E+00 +1.46460E-01
+ -1.48051E+00 +1.34386E-01
+ -1.44715E+00 +1.27167E-01
+ -1.39156E+00 +1.15178E-01
+ -1.38044E+00 +1.12787E-01
+ -1.35821E+00 +1.08021E-01
+ -1.32485E+00 +1.00888E-01
+ -1.29149E+00 +9.37922E-02
+ -1.26926E+00 +8.90821E-02
+ -1.24702E+00 +8.43836E-02
+ -1.23590E+00 +8.20499E-02
+ -1.21366E+00 +7.73947E-02
+ -1.20255E+00 +7.50721E-02
+ -1.19143E+00 +7.27566E-02
+ -1.16919E+00 +6.81550E-02
+ -1.14695E+00 +6.35856E-02
+ -1.13583E+00 +6.13146E-02
+ -1.12472E+00 +5.90490E-02
+ -1.11360E+00 +5.68039E-02
+ -1.10248E+00 +5.45681E-02
+ -1.09136E+00 +5.23418E-02
+ -1.08024E+00 +5.01268E-02
+ -1.06912E+00 +4.79393E-02
+ -1.05800E+00 +4.57623E-02
+ -1.04689E+00 +4.35970E-02
+ -1.03577E+00 +4.14612E-02
+ -1.02465E+00 +3.93558E-02
+ -1.01353E+00 +3.72564E-02
+ -1.00241E+00 +3.51974E-02
+ -9.91292E-01 +3.31839E-02
+ -9.80174E-01 +3.11846E-02
+ -9.69055E-01 +2.92454E-02
+ -9.57937E-01 +2.73437E-02
+ -9.46818E-01 +2.54936E-02
+ -9.35700E-01 +2.37209E-02
+ -9.24581E-01 +2.20011E-02
+ -9.13462E-01 +2.03762E-02
+ -9.02344E-01 +1.88315E-02
+ -8.91225E-01 +1.73893E-02
+ -8.80107E-01 +1.60609E-02