| "2015.07rc1" 133732 1213805064 prefer_vt_curves
************************************
** Library generated Wed Oct 21 17:37:08 2015
** The IBIS file was C:\Myproject\project2\si_lib\ibis\y14w.ibs
**
** Copyright (c) Signal Integrity Software 2012, All Rights Reserved
************************************
.SUBCKT y14w_dqbuff_FF PU_REF PD_REF PAD A EN Z PC_REF GC_REF
*
*
* C_comp
CCOMP PAD GC_REF +3.80000E-12 IC=0
*
RA A 0 1Meg
VINIT Vini 0    dc 200n
RETIR ETR  Vini 1G
CETR  ETR  0    1n
BETR  0    ETR  I= Time < 40p ? 0. : 1n
RETIF ETF  Vini 1G
CETF  ETF  0    1n
BETF  0    ETF  I= Time < 40p ? 0. : 1n
RETR ETR 0 R= V(A) > .5 ? 1G  : .02
RETF ETF 0 R= V(A) > .5 ? .02 : 1G
* Input Receiver
BZ Z 0 V= V(PAD) > 1.400 ? 1.0 : 0.0
RZZ Z  0 1MEG
*
* Ground Clamp Structure;
XGC GC_Current 0 PAD GC_REF GND_CLAMP
BGC PAD GC_REF I= V(GC_Current)
*
* Power Clamp Structure;
XPC PC_Current 0 PC_REF PAD POWER_CLAMP
BPC PAD PC_REF I= V(PC_Current)
*
* Pull Down Structure;
AKT_PD_R ETR KT_PD_R KT_PD_R_T
AKT_PD_F ETF KT_PD_F KT_PD_F_T
.model KT_PD_R_T pwl2(
+ xy_array = [ 0. .996 5.714p .996 11.429p .998 22.857p 1.005 28.571p .993 39.286p .999 44.286p 1.005 49.286p 1.01 54.911p 1.013 66.161p 1.011 71.786p 1.008 83.036p 1.01
+ 88.661p 1.018 94.286p 1.031 99.286p 1.048 104.286p 1.069 114.286p 1.122 124.286p 1.182 129.286p 1.21 134.286p 1.234 139.286p 1.253 144.286p 1.265
+ 149.286p 1.269 154.286p 1.263 159.286p 1.248 164.286p 1.226 169.286p 1.199 174.286p 1.165 179.286p 1.125 184.286p 1.08 189.286p 1.028 194.286p .939
+ 199.286p .903 204.286p .818 209.286p .686 214.286p .541 219.286p .438 224.286p .365 231.786p .309 236.786p .296 241.786p .294 246.786p .296
+ 251.786p .297 256.786p .299 261.786p .294 266.786p .286 271.786p .279 276.786p .277 281.786p .283 286.786p .29 291.786p .273 296.786p .255
+ 301.786p .241 306.786p .228 311.786p .208 317.619p .217 324.286p .191 329.286p .155 334.286p .069 339.286p .169 344.286p .13 349.286p .113
+ 354.286p .117 360.952p .074 366.786p .048 371.786p .06 376.786p .053 381.786p .038 386.786p .022 391.786p .018 396.786p .013 401.786p .001
+ 411.786p -773.117u 416.786p -.011 421.786p -.013 431.786p -.016 436.786p -.019 444.286p -.02 449.286p -.021 456.786p -.022 471.786p -.021 476.786p -.02
+ 486.786p -.019 496.786p -.017 509.286p -.016 514.286p -.014 527.619p -.009 536.786p -.014 541.786p -.011 549.286p -.005 554.286p -.007 579.286p -.006
+ 589.286p -.004 609.286p -.003 629.286p -.002 654.286p -458.767u 694.286p 712.89u 784.286p .002 1.46n 719.968u 1.887n -283.266u 1.929n -381.167u 1.935n -395.262u
+ 1.941n 0. 101.941n 0. ]  )
.model KT_PD_F_T pwl2(
+ xy_array = [ 0. -.003 5.714p .996 11.429p -.002 144.286p 0. 149.286p .001 154.286p .003 159.286p .004 169.286p .007 174.286p .01 179.286p .016 184.286p .019 189.286p .021
+ 209.286p .02 214.286p .026 219.286p .024 229.286p .025 239.286p .026 251.786p .023 256.786p .022 261.786p .02 274.286p .018 279.286p .015
+ 296.786p .014 306.786p .016 311.786p .036 317.619p .048 324.286p .059 329.286p .1 334.286p .165 339.286p .126 344.286p .157 349.286p .18
+ 354.286p .185 360.952p .234 366.786p .264 371.786p .289 376.786p .311 381.786p .331 386.786p .347 391.786p .361 396.786p .375 401.786p .389
+ 406.786p .405 411.786p .421 416.786p .439 421.786p .458 426.786p .478 431.786p .497 436.786p .517 441.786p .536 446.786p .556 451.786p .571
+ 456.786p .591 464.286p .613 469.286p .627 474.286p .644 479.286p .657 484.286p .672 489.286p .687 494.286p .7 499.286p .713 504.286p .732
+ 509.286p .749 514.286p .768 519.286p .791 524.286p .81 530.952p .836 536.786p .848 541.786p .86 549.286p .882 554.286p .89 559.286p .892
+ 564.286p .878 569.286p .883 574.286p .902 584.286p .908 594.286p .913 599.286p .911 604.286p .917 609.286p .922 614.286p .924 619.286p .929
+ 624.286p .934 629.286p .936 634.286p .938 639.286p .941 644.286p .945 654.286p .948 659.286p .952 664.286p .956 669.286p .958 679.286p .961
+ 684.286p .963 689.286p .965 699.286p .967 704.286p .969 709.286p .971 714.286p .973 724.286p .974 734.286p .977 739.286p .979 744.286p .98
+ 759.286p .981 764.286p .982 769.286p .984 779.286p .985 799.286p .987 809.286p .989 819.286p .99 844.286p .991 864.286p .992 889.286p .994
+ 909.286p .995 949.286p .996 1.004n .997 1.084n .998 1.234n .999 1.5n 1. 1.929n 1.001 1.935n 1.001 1.941n 1. 101.941n 1. ] )
*
BPD PAD PD_REF I= V(EN) < .5 ? 0 : ; Off
+ V(A) > .5 ? V(PD_Current)*V(KT_PD_R) : V(PD_Current)*V(KT_PD_F)
XPD PD_Current 0 PAD PD_REF PULL_DOWN
*
* Pullup Structure;
AKT_PU_R ETR KT_PU_R KT_PU_R_T
AKT_PU_F ETF KT_PU_F KT_PU_F_T
.model KT_PU_R_T pwl2(
+ xy_array = [ 0. 0. 5.714p 0. 11.429p .001 39.286p .003 44.286p .004 54.911p .006 83.036p .008 88.661p .009 94.286p .012 99.286p .015 104.286p .02 114.286p .03
+ 124.286p .045 129.286p .053 134.286p .062 139.286p .071 144.286p .08 149.286p .089 154.286p .099 159.286p .108 164.286p .117 169.286p .127
+ 174.286p .136 179.286p .145 184.286p .155 189.286p .163 199.286p .179 204.286p .184 209.286p .18 214.286p .174 221.786p .178 229.286p .2
+ 234.286p .224 239.286p .253 244.286p .285 249.286p .316 254.286p .346 259.286p .372 264.286p .391 269.286p .408 274.286p .423 279.286p .442
+ 284.286p .465 289.286p .486 294.286p .492 301.786p .5 306.786p .514 311.786p .522 317.619p .527 324.286p .535 329.286p .552 339.286p .558
+ 344.286p .565 349.286p .571 354.286p .579 360.952p .592 366.786p .601 371.786p .607 376.786p .619 381.786p .617 389.286p .62 394.286p .632
+ 399.286p .636 404.286p .64 409.286p .664 414.286p .67 421.786p .678 426.786p .69 431.786p .699 436.786p .705 441.786p .724 446.786p .719
+ 451.786p .743 456.786p .754 464.286p .764 469.286p .776 474.286p .787 479.286p .799 484.286p .804 489.286p .814 494.286p .825 499.286p .837
+ 504.286p .839 509.286p .851 514.286p .864 519.286p .868 524.286p .876 530.952p .887 536.786p .896 541.786p .904 549.286p .911 554.286p .915
+ 559.286p .919 564.286p .924 569.286p .93 574.286p .935 579.286p .942 584.286p .945 589.286p .949 594.286p .951 599.286p .953 604.286p .955
+ 609.286p .959 614.286p .962 619.286p .964 624.286p .967 629.286p .969 634.286p .971 639.286p .973 644.286p .975 654.286p .977 659.286p .979
+ 664.286p .98 669.286p .981 679.286p .982 684.286p .984 689.286p .985 694.286p .987 704.286p .988 714.286p .989 724.286p .99 739.286p .991
+ 749.286p .993 774.286p .994 789.286p .995 829.286p .996 874.286p .997 969.286p .999 1.33n 1. 1.929n .999 1.935n .999 1.941n 1. 101.941n 1. ] )
.model KT_PU_F_T pwl2(
+ xy_array = [ 0. 1. 11.429p .996 54.911p 1.01 60.536p 1.022 66.161p 1.013 71.786p 1.01 77.411p 1.013 83.036p 1.021 88.661p 1.031 94.286p 1.042 99.286p 1.052
+ 104.286p 1.063 114.286p 1.086 124.286p 1.111 129.286p 1.125 134.286p 1.14 139.286p 1.154 144.286p 1.167 149.286p 1.178 154.286p 1.186 159.286p 1.184
+ 164.286p 1.17 169.286p 1.148 174.286p 1.115 179.286p 1.076 184.286p 1.013 189.286p .93 194.286p .83 199.286p .721 204.286p .606 209.286p .491
+ 214.286p .385 219.286p .293 224.286p .223 231.786p .146 236.786p .088 241.786p .046 246.786p .014 251.786p -.014 256.786p -.031 261.786p -.041
+ 266.786p -.045 281.786p -.043 286.786p -.037 291.786p -.03 296.786p -.025 301.786p -.021 306.786p -.014 311.786p .003 317.619p .011 324.286p .016
+ 329.286p .04 334.286p .074 339.286p .041 344.286p .048 354.286p .038 360.952p .044 366.786p .04 371.786p .035 376.786p .028 381.786p .018
+ 386.786p .008 391.786p -.003 396.786p -.012 401.786p -.02 406.786p -.025 411.786p -.027 421.786p -.025 426.786p -.021 431.786p -.018 436.786p -.014
+ 441.786p -.009 446.786p -.005 456.786p -.003 464.286p -507.87u 471.786p .002 484.286p .004 799.286p .002 1.929n 0. 1.935n 0. 1.941n 0. 101.941n 0. ] )
*
BPU PAD PU_REF I= V(EN) < .5 ? 0 : ; Off
+ V(A) > .5 ? V(PU_Current)*V(KT_PU_R) : V(PU_Current)*V(KT_PU_F)
XPU PU_Current 0 PU_REF PAD PULL_UP
*
* Ground Clamp IV;
.SUBCKT GND_CLAMP PAD_OUT GC_OUT PAD_IN GC_IN
* Connections     Out+ Out In+ In
AGndClamp %vd(PAD_IN,GC_IN) %vd(PAD_OUT,GC_OUT) transfer
.model transfer pwl2(
+ xy_array = [
+ -4.30000E+00 -1.05921E+00
+ -3.30000E+00 -1.05921E+00
+ -3.28500E+00 -1.05004E+00
+ -3.27500E+00 -1.04411E+00
+ -3.21500E+00 -1.00877E+00
+ -3.20500E+00 -1.00292E+00
+ -3.14000E+00 -9.65175E-01
+ -3.13500E+00 -9.62293E-01
+ -3.07500E+00 -9.27924E-01
+ -3.07000E+00 -9.25079E-01
+ -2.94500E+00 -8.54882E-01
+ -2.83500E+00 -7.94557E-01
+ -2.83000E+00 -7.91848E-01
+ -2.81500E+00 -7.83736E-01
+ -2.77500E+00 -7.62230E-01
+ -2.70500E+00 -7.25043E-01
+ -2.69500E+00 -7.19748E-01
+ -2.68000E+00 -7.11862E-01
+ -2.60000E+00 -6.70212E-01
+ -2.58500E+00 -6.62483E-01
+ -2.54500E+00 -6.41986E-01
+ -2.48000E+00 -6.09053E-01
+ -2.46000E+00 -5.99015E-01
+ -2.42500E+00 -5.81554E-01
+ -2.36000E+00 -5.49456E-01
+ -2.33500E+00 -5.37236E-01
+ -2.30500E+00 -5.22662E-01
+ -2.23500E+00 -4.89034E-01
+ -2.21000E+00 -4.77184E-01
+ -2.17500E+00 -4.60638E-01
+ -2.10500E+00 -4.28004E-01
+ -2.08500E+00 -4.18781E-01
+ -2.04500E+00 -4.00471E-01
+ -1.98500E+00 -3.73355E-01
+ -1.96000E+00 -3.62185E-01
+ -1.92000E+00 -3.44479E-01
+ -1.87000E+00 -3.22610E-01
+ -1.84000E+00 -3.09659E-01
+ -1.81000E+00 -2.96838E-01
+ -1.80500E+00 -2.94714E-01
+ -1.75500E+00 -2.73699E-01
+ -1.75000E+00 -2.71626E-01
+ -1.74000E+00 -2.67485E-01
+ -1.70000E+00 -2.51105E-01
+ -1.69000E+00 -2.47118E-01
+ -1.65500E+00 -2.33164E-01
+ -1.64500E+00 -2.29177E-01
+ -1.61000E+00 -2.15631E-01
+ -1.60000E+00 -2.11840E-01
+ -1.57000E+00 -2.00707E-01
+ -1.56500E+00 -1.98885E-01
+ -1.53500E+00 -1.88239E-01
+ -1.53000E+00 -1.86514E-01
+ -1.50000E+00 -1.76510E-01
+ -1.48000E+00 -1.70219E-01
+ -1.47000E+00 -1.67212E-01
+ -1.45500E+00 -1.62871E-01
+ -1.45000E+00 -1.61498E-01
+ -1.42500E+00 -1.54959E-01
+ -1.42000E+00 -1.53723E-01
+ -1.41000E+00 -1.51456E-01
+ -1.40500E+00 -1.50322E-01
+ -1.38500E+00 -1.45886E-01
+ -1.37500E+00 -1.43840E-01
+ -1.36000E+00 -1.40872E-01
+ -1.33500E+00 -1.36072E-01
+ -1.32000E+00 -1.33244E-01
+ -1.27000E+00 -1.23917E-01
+ -1.22000E+00 -1.14647E-01
+ -1.03000E+00 -7.96537E-02
+ -1.02500E+00 -7.87381E-02
+ -8.95000E-01 -5.50539E-02
+ -8.45000E-01 -4.60342E-02
+ -8.05000E-01 -3.88900E-02
+ -7.95000E-01 -3.71193E-02
+ -7.90000E-01 -3.62370E-02
+ -7.65000E-01 -3.18714E-02
+ -7.50000E-01 -2.92962E-02
+ -7.40000E-01 -2.76027E-02
+ -7.15000E-01 -2.34822E-02
+ -7.05000E-01 -2.18657E-02
+ -6.95000E-01 -2.03333E-02
+ -6.80000E-01 -1.80455E-02
+ -6.75000E-01 -1.72829E-02
+ -6.65000E-01 -1.59331E-02
+ -6.45000E-01 -1.33063E-02
+ -6.30000E-01 -1.13362E-02
+ -6.20000E-01 -1.00228E-02
+ -6.10000E-01 -8.88884E-03
+ -5.85000E-01 -6.33505E-03
+ -5.80000E-01 -5.87923E-03
+ -5.75000E-01 -5.43739E-03
+ -5.45000E-01 -3.19789E-03
+ -5.30000E-01 -2.33580E-03
+ -5.10000E-01 -1.45367E-03
+ -4.85000E-01 -7.31410E-04
+ -4.75000E-01 -5.39328E-04
+ -4.50000E-01 -2.64999E-04
+ -4.40000E-01 -1.55267E-04
+ -3.95000E-01 +0.00000E+00
+ +6.60000E+00 +0.00000E+00
+ +7.60000E+00 +0.00000E+00
+ ] )
.ENDS GND_CLAMP
*
* Power Clamp IV;
.SUBCKT POWER_CLAMP PAD_OUT PC_OUT PC_IN PAD_IN
* Connections       Out+ Out In+ In
APwrClamp %vd(PC_IN,PAD_IN) %vd(PAD_OUT,PC_OUT) transfer
.model transfer pwl2(
+ xy_array = [
+ -4.30000E+00 +4.79911E-02
+ -3.30000E+00 +4.79911E-02
+ -3.29500E+00 +4.74903E-02
+ -3.29000E+00 +4.73666E-02
+ -3.28500E+00 +4.72340E-02
+ -3.26500E+00 +4.67707E-02
+ -3.26000E+00 +4.66628E-02
+ -3.25000E+00 +4.64469E-02
+ -3.24000E+00 +4.62212E-02
+ -3.23000E+00 +4.59952E-02
+ -3.21500E+00 +4.56708E-02
+ -3.18500E+00 +4.50118E-02
+ -3.14000E+00 +4.40238E-02
+ -3.12000E+00 +4.35845E-02
+ -3.11000E+00 +4.33651E-02
+ -3.10000E+00 +4.31457E-02
+ -3.09000E+00 +4.29264E-02
+ -3.07500E+00 +4.25974E-02
+ -3.07000E+00 +4.24878E-02
+ -2.83500E+00 +3.73430E-02
+ -2.78000E+00 +3.61413E-02
+ -2.77500E+00 +3.60321E-02
+ -2.68000E+00 +3.39586E-02
+ -2.54000E+00 +3.09089E-02
+ -2.46500E+00 +2.92785E-02
+ -2.41500E+00 +2.81931E-02
+ -2.39000E+00 +2.76510E-02
+ -2.29500E+00 +2.55943E-02
+ -2.23500E+00 +2.42988E-02
+ -2.20000E+00 +2.35446E-02
+ -2.18500E+00 +2.32215E-02
+ -2.09500E+00 +2.12886E-02
+ -2.08000E+00 +2.09674E-02
+ -1.97500E+00 +1.87273E-02
+ -1.91000E+00 +1.73493E-02
+ -1.86000E+00 +1.62949E-02
+ -1.85000E+00 +1.60847E-02
+ -1.84000E+00 +1.58747E-02
+ -1.73500E+00 +1.36855E-02
+ -1.73000E+00 +1.35822E-02
+ -1.63000E+00 +1.15318E-02
+ -1.62000E+00 +1.13289E-02
+ -1.54000E+00 +9.72353E-03
+ -1.53500E+00 +9.62433E-03
+ -1.51500E+00 +9.22904E-03
+ -1.49500E+00 +8.83625E-03
+ -1.45000E+00 +7.96267E-03
+ -1.44500E+00 +7.86647E-03
+ -1.42500E+00 +7.48396E-03
+ -1.38000E+00 +6.63553E-03
+ -1.37500E+00 +6.54245E-03
+ -1.36500E+00 +6.35710E-03
+ -1.34000E+00 +5.89827E-03
+ -1.33000E+00 +5.71671E-03
+ -1.29500E+00 +5.09085E-03
+ -1.28500E+00 +4.91500E-03
+ -1.27000E+00 +4.65387E-03
+ -1.24500E+00 +4.22639E-03
+ -1.23500E+00 +4.05797E-03
+ -1.22000E+00 +3.80885E-03
+ -1.20000E+00 +3.48447E-03
+ -1.19000E+00 +3.32274E-03
+ -1.17500E+00 +3.09185E-03
+ -1.15500E+00 +2.78448E-03
+ -1.14000E+00 +2.55593E-03
+ -1.13500E+00 +2.48325E-03
+ -1.11500E+00 +2.19594E-03
+ -1.10500E+00 +2.05622E-03
+ -1.09500E+00 +1.92004E-03
+ -1.07000E+00 +1.59487E-03
+ -1.06500E+00 +1.53211E-03
+ -1.06000E+00 +1.47083E-03
+ -1.03500E+00 +1.17788E-03
+ -1.03000E+00 +1.12258E-03
+ -1.02500E+00 +1.06843E-03
+ -9.95000E-01 +7.69002E-04
+ -9.90000E-01 +7.23650E-04
+ -9.75000E-01 +5.95900E-04
+ -9.60000E-01 +4.81458E-04
+ -9.55000E-01 +4.46247E-04
+ -9.40000E-01 +3.49251E-04
+ -9.30000E-01 +2.94414E-04
+ -9.25000E-01 +2.66996E-04
+ -9.15000E-01 +2.22392E-04
+ -9.00000E-01 +1.60835E-04
+ -8.95000E-01 +1.40316E-04
+ -8.90000E-01 +1.26456E-04
+ -8.65000E-01 +5.89548E-05
+ -8.55000E-01 +3.05509E-05
+ -8.40000E-01 +1.81098E-05
+ -8.25000E-01 +0.00000E+00
+ +6.60000E+00 +0.00000E+00
+ +7.60000E+00 +0.00000E+00
+ ] )
.ENDS POWER_CLAMP
*
* Pull Down IV;
.SUBCKT PULL_DOWN PD_Current    REF   PAD   PD_REF
* Connections     Out+ Out In+ In
APullDown %vd(PAD,PD_REF) %vd(PD_Current,REF) transfer
.model transfer pwl2(
+ xy_array = [
+ -4.30000E+00 -1.85081E-01
+ -3.30000E+00 -1.85081E-01
+ -2.93500E+00 -1.82567E-01
+ -2.85000E+00 -1.81753E-01
+ -2.77000E+00 -1.80789E-01
+ -2.68000E+00 -1.79584E-01
+ -2.54000E+00 -1.77395E-01
+ -2.44500E+00 -1.75416E-01
+ -2.33500E+00 -1.72964E-01
+ -2.18000E+00 -1.68826E-01
+ -2.17500E+00 -1.68683E-01
+ -2.02500E+00 -1.64688E-01
+ -1.89000E+00 -1.59332E-01
+ -1.74000E+00 -1.53286E-01
+ -1.73500E+00 -1.53069E-01
+ -1.70000E+00 -1.51495E-01
+ -1.48000E+00 -1.40136E-01
+ -1.37500E+00 -1.36198E-01
+ -1.34500E+00 -1.34806E-01
+ -1.34000E+00 -1.34562E-01
+ -1.15000E+00 -1.24473E-01
+ -1.14500E+00 -1.24195E-01
+ -1.11500E+00 -1.22491E-01
+ -9.00000E-01 -1.09393E-01
+ -8.50000E-01 -1.06037E-01
+ -8.45000E-01 -1.05691E-01
+ -7.60000E-01 -9.94254E-02
+ -7.50000E-01 -9.86262E-02
+ -7.45000E-01 -9.82181E-02
+ -6.85000E-01 -9.28605E-02
+ -6.70000E-01 -9.13732E-02
+ -5.90000E-01 -8.21697E-02
+ -4.45000E-01 -6.28119E-02
+ -4.20000E-01 -5.93938E-02
+ -3.90000E-01 -5.52762E-02
+ +0.00000E+00 -5.50462E-06
+ +1.65000E-01 +2.33559E-02
+ +1.75000E-01 +2.47221E-02
+ +1.80000E-01 +2.54031E-02
+ +3.25000E-01 +4.44952E-02
+ +3.45000E-01 +4.70190E-02
+ +3.60000E-01 +4.89118E-02
+ +4.85000E-01 +6.40428E-02
+ +5.15000E-01 +6.75220E-02
+ +5.35000E-01 +6.98707E-02
+ +6.45000E-01 +8.18840E-02
+ +6.80000E-01 +8.55606E-02
+ +6.85000E-01 +8.60769E-02
+ +8.00000E-01 +9.74635E-02
+ +8.50000E-01 +1.02102E-01
+ +8.60000E-01 +1.03016E-01
+ +9.55000E-01 +1.11232E-01
+ +1.00500E+00 +1.15264E-01
+ +1.01500E+00 +1.16045E-01
+ +1.11000E+00 +1.23027E-01
+ +1.15500E+00 +1.26041E-01
+ +1.16500E+00 +1.26677E-01
+ +1.25500E+00 +1.32037E-01
+ +1.30000E+00 +1.34248E-01
+ +1.31000E+00 +1.34714E-01
+ +1.45500E+00 +1.39833E-01
+ +1.47000E+00 +1.40193E-01
+ +1.48000E+00 +1.40416E-01
+ +1.67000E+00 +1.43166E-01
+ +1.73000E+00 +1.43709E-01
+ +1.74500E+00 +1.43832E-01
+ +3.63500E+00 +1.53455E-01
+ +3.68500E+00 +1.53722E-01
+ +3.72500E+00 +1.53944E-01
+ +4.18500E+00 +1.57431E-01
+ +4.19500E+00 +1.57536E-01
+ +4.22000E+00 +1.57809E-01
+ +4.45500E+00 +1.61026E-01
+ +4.48500E+00 +1.61546E-01
+ +4.58000E+00 +1.63338E-01
+ +4.69500E+00 +1.65936E-01
+ +4.71500E+00 +1.66440E-01
+ +4.91000E+00 +1.72209E-01
+ +4.91500E+00 +1.72379E-01
+ +4.93500E+00 +1.73074E-01
+ +5.12000E+00 +1.80434E-01
+ +5.13500E+00 +1.81109E-01
+ +5.14000E+00 +1.81366E-01
+ +5.31500E+00 +1.90203E-01
+ +5.33000E+00 +1.91045E-01
+ +5.35000E+00 +1.92175E-01
+ +5.50500E+00 +2.01879E-01
+ +5.51500E+00 +2.02555E-01
+ +5.55000E+00 +2.04968E-01
+ +5.69500E+00 +2.15791E-01
+ +5.75000E+00 +2.20247E-01
+ +5.87000E+00 +2.30636E-01
+ +5.87500E+00 +2.31092E-01
+ +5.95000E+00 +2.38089E-01
+ +6.05500E+00 +2.48481E-01
+ +6.17000E+00 +2.60672E-01
+ +6.23500E+00 +2.67934E-01
+ +6.38000E+00 +2.85070E-01
+ +6.41500E+00 +2.89416E-01
+ +6.42000E+00 +2.90042E-01
+ +6.60000E+00 +3.13564E-01
+ +7.60000E+00 +3.13564E-01
+ ] )
.ENDS PULL_DOWN
*
* Pull Up IV;
.SUBCKT PULL_UP PU_Current REF PU_REF PAD
* Connections   Out+ Out In+ In
APullUp %vd(PU_REF,PAD) %vd(PU_Current,REF) transfer
.model transfer pwl2(
+ xy_array = [
+ -4.30000E+00 +1.21481E-02
+ -3.30000E+00 +1.21481E-02
+ -2.99500E+00 +9.77889E-03
+ -2.49000E+00 +6.76463E-03
+ -2.48000E+00 +6.70987E-03
+ -2.40500E+00 +6.30424E-03
+ -1.57000E+00 +2.25184E-03
+ -1.39500E+00 +1.50721E-03
+ -1.26000E+00 +9.83986E-04
+ -1.23000E+00 +8.74839E-04
+ -8.50000E-01 +2.27879E-05
+ -8.15000E-01 -1.79397E-06
+ -1.70000E-01 -4.68812E-06
+ +0.00000E+00 -4.73072E-05
+ +9.00000E-02 -4.97954E-05
+ +1.30000E-01 -1.26741E-04
+ +1.55000E-01 -2.24045E-04
+ +2.05000E-01 -7.32347E-04
+ +2.45000E-01 -1.69027E-03
+ +2.75000E-01 -2.75126E-03
+ +2.95000E-01 -3.64052E-03
+ +3.15000E-01 -4.65660E-03
+ +3.60000E-01 -7.30207E-03
+ +4.35000E-01 -1.26352E-02
+ +5.35000E-01 -2.06885E-02
+ +5.50000E-01 -2.19965E-02
+ +5.75000E-01 -2.42139E-02
+ +7.80000E-01 -4.39499E-02
+ +8.60000E-01 -5.20826E-02
+ +8.70000E-01 -5.31208E-02
+ +1.12500E+00 -8.00740E-02
+ +1.34000E+00 -1.04083E-01
+ +1.53500E+00 -1.25691E-01
+ +1.71500E+00 -1.46505E-01
+ +1.88500E+00 -1.66334E-01
+ +2.24500E+00 -2.07969E-01
+ +2.25500E+00 -2.09738E-01
+ +2.43000E+00 -2.29805E-01
+ +2.88500E+00 -2.83091E-01
+ +2.89000E+00 -2.83677E-01
+ +3.47000E+00 -3.51640E-01
+ +3.57500E+00 -3.63704E-01
+ +3.58000E+00 -3.63904E-01
+ +3.62000E+00 -3.68976E-01
+ +3.73000E+00 -3.81852E-01
+ +3.78500E+00 -3.88285E-01
+ +3.79000E+00 -3.89394E-01
+ +3.87500E+00 -3.99050E-01
+ +3.94000E+00 -4.06651E-01
+ +4.01500E+00 -4.15348E-01
+ +4.06000E+00 -4.20332E-01
+ +4.07000E+00 -4.21373E-01
+ +4.09000E+00 -4.23418E-01
+ +4.15000E+00 -4.27542E-01
+ +4.22500E+00 -4.29954E-01
+ +4.29500E+00 -4.30696E-01
+ +4.32000E+00 -4.31093E-01
+ +4.39500E+00 -4.31627E-01
+ +4.54000E+00 -4.33363E-01
+ +4.60500E+00 -4.34165E-01
+ +4.61500E+00 -4.34458E-01
+ +4.65000E+00 -4.35215E-01
+ +4.70500E+00 -4.36621E-01
+ +4.77500E+00 -4.38516E-01
+ +4.90000E+00 -4.42336E-01
+ +4.94000E+00 -4.43461E-01
+ +4.98000E+00 -4.44238E-01
+ +4.99000E+00 -4.44412E-01
+ +5.03500E+00 -4.43719E-01
+ +5.07000E+00 -4.41640E-01
+ +5.11000E+00 -4.37885E-01
+ +5.15000E+00 -4.32857E-01
+ +5.15500E+00 -4.32202E-01
+ +5.23000E+00 -4.21973E-01
+ +5.23500E+00 -4.21352E-01
+ +5.26000E+00 -4.18251E-01
+ +5.32000E+00 -4.12587E-01
+ +5.38500E+00 -4.08921E-01
+ +5.43000E+00 -4.07027E-01
+ +5.44000E+00 -4.06652E-01
+ +5.50000E+00 -4.04689E-01
+ +5.50500E+00 -4.04541E-01
+ +5.61000E+00 -4.01519E-01
+ +5.69500E+00 -3.98704E-01
+ +5.70000E+00 -3.98540E-01
+ +5.82000E+00 -3.94197E-01
+ +5.82500E+00 -3.93997E-01
+ +5.85000E+00 -3.93156E-01
+ +5.95500E+00 -3.88396E-01
+ +5.96500E+00 -3.87899E-01
+ +6.04500E+00 -3.83691E-01
+ +6.12500E+00 -3.78510E-01
+ +6.16500E+00 -3.76297E-01
+ +6.20500E+00 -3.73662E-01
+ +6.26000E+00 -3.69841E-01
+ +6.36000E+00 -3.62496E-01
+ +6.38000E+00 -3.60921E-01
+ +6.41500E+00 -3.58060E-01
+ +6.42000E+00 -3.57643E-01
+ +6.49500E+00 -3.51163E-01
+ +6.60000E+00 -3.41416E-01
+ +7.60000E+00 -3.41416E-01
+ ] )
.ENDS PULL_UP
*
.ENDS y14w_dqbuff_FF
*************************************
************************************
** Library generated Wed Oct 21 17:37:08 2015
** The IBIS file was C:\Myproject\project2\si_lib\ibis\y14w.ibs
**
** Copyright (c) Signal Integrity Software 2012, All Rights Reserved
************************************
.SUBCKT y14w_dqbuff_TT PU_REF PD_REF PAD A EN Z PC_REF GC_REF
*
*
* C_comp
CCOMP PAD GC_REF +4.15000E-12 IC=0
*
RA A 0 1Meg
VINIT Vini 0    dc 200n
RETIR ETR  Vini 1G
CETR  ETR  0    1n
BETR  0    ETR  I= Time < 40p ? 0. : 1n
RETIF ETF  Vini 1G
CETF  ETF  0    1n
BETF  0    ETF  I= Time < 40p ? 0. : 1n
RETR ETR 0 R= V(A) > .5 ? 1G  : .02
RETF ETF 0 R= V(A) > .5 ? .02 : 1G
* Input Receiver
BZ Z 0 V= V(PAD) > 1.400 ? 1.0 : 0.0
RZZ Z  0 1MEG
*
* Ground Clamp Structure;
XGC GC_Current 0 PAD GC_REF GND_CLAMP
BGC PAD GC_REF I= V(GC_Current)
*
* Power Clamp Structure;
XPC PC_Current 0 PC_REF PAD POWER_CLAMP
BPC PAD PC_REF I= V(PC_Current)
*
* Pull Down Structure;
AKT_PD_R ETR KT_PD_R KT_PD_R_T
AKT_PD_F ETF KT_PD_F KT_PD_F_T
.model KT_PD_R_T pwl2(
+ xy_array = [ 0. .995 5p .995 10p 1.004 15p 1.005 20p .997 25p .992 35p .995 40p .999 45p 1.002 50p 1.005 55p 1.006 70p 1.008
+ 75p 1.009 80p 1.011 85p 1.016 90p 1.023 95p 1.032 100p 1.044 105p 1.058 110p 1.075 120p 1.112 125p 1.132
+ 130p 1.151 135p 1.169 140p 1.185 145p 1.198 150p 1.207 155p 1.212 165p 1.206 170p 1.195 175p 1.178 180p 1.156
+ 185p 1.128 190p 1.094 195p 1.051 200p 1.001 205p .941 210p .849 215p .793 220p .704 225p .612 230p .516
+ 235p .434 240p .386 246.667p .349 252.5p .331 257.5p .323 262.5p .316 267.5p .312 272.5p .31 277.5p .309 282.5p .31
+ 287.5p .313 292.5p .314 300p .311 305p .306 310p .297 315p .295 320p .286 325p .274 330p .265 335p .25
+ 340p .243 345p .233 355p .209 360p .196 365p .181 370p .166 375p .151 380p .138 385p .125 390p .113
+ 395p .102 400p .091 405p .081 410p .072 415p .063 420p .054 425p .047 430p .04 435p .034 440p .029
+ 445p .023 450p .017 455p .013 460p .009 465p .004 470p 292.616u 475p -.003 480p -.006 485p -.008 490p -.006
+ 495p -.013 500p -.01 505p -.012 510p -.015 515p -.021 521.667p -.009 527.5p -.022 532.5p -.017 537.5p -.013 550p -.015
+ 555p -.017 562.5p -.015 568.333p -.009 575p -.012 580p -.026 585p -.005 590p -.009 595p -.011 605p -.01 615p -.009
+ 630p -.007 635p -.006 665p -.004 685p -.003 695p -.002 735p -314.348u 805p 721.911u 1.665n -292.467u 1.784n -534.515u 1.79n -547.882u
+ 1.796n 0. 101.796n 0. ]  )
.model KT_PD_F_T pwl2(
+ xy_array = [ 0. -684.093u 5p .995 10p -453.962u 40p -.002 65p -.003 140p -.001 150p 350.605u 160p .002 165p .003 175p .005 180p .007 185p .011
+ 190p .014 195p .016 200p .02 205p .024 210p .027 215p .03 220p .032 230p .029 235p .034 240p .03
+ 246.667p .024 252.5p .025 257.5p .023 262.5p .021 267.5p .02 277.5p .019 282.5p .017 292.5p .016 302.5p .014 310p .013
+ 315p .011 330p .012 335p .015 340p .024 345p .034 355p .07 360p .092 365p .111 370p .129 375p .15
+ 380p .171 385p .189 390p .209 395p .226 400p .243 405p .265 410p .285 415p .304 420p .323 425p .341
+ 430p .358 435p .375 440p .39 445p .405 450p .418 455p .431 460p .443 465p .455 470p .468 475p .482
+ 480p .497 485p .513 490p .528 495p .541 500p .559 505p .572 510p .587 515p .596 521.667p .621 527.5p .632
+ 532.5p .641 537.5p .656 542.5p .668 547.5p .676 552.5p .685 557.5p .699 562.5p .71 568.333p .723 575p .735 580p .74
+ 585p .761 590p .771 595p .783 600p .796 605p .81 610p .824 615p .837 620p .847 625p .857 630p .865
+ 635p .871 640p .874 650p .876 655p .887 660p .886 665p .891 670p .882 675p .898 680p .905 685p .911
+ 690p .904 695p .91 700p .916 705p .922 710p .919 715p .92 720p .927 725p .934 730p .937 735p .932
+ 745p .937 750p .945 755p .95 760p .953 765p .949 775p .952 780p .955 790p .958 795p .961 800p .964
+ 805p .966 810p .964 825p .967 830p .97 835p .972 840p .973 850p .974 855p .976 860p .977 880p .978
+ 885p .98 890p .981 900p .982 910p .983 920p .984 930p .986 940p .987 965p .989 980p .99 1n .991
+ 1.02n .992 1.04n .993 1.068n .994 1.114n .996 1.145n .997 1.249n .998 1.351n .999 1.653n 1. 1.784n 1. 1.79n 1.
+ 1.796n 1. 101.796n 1. ] )
*
BPD PAD PD_REF I= V(EN) < .5 ? 0 : ; Off
+ V(A) > .5 ? V(PD_Current)*V(KT_PD_R) : V(PD_Current)*V(KT_PD_F)
XPD PD_Current 0 PAD PD_REF PULL_DOWN
*
* Pullup Structure;
AKT_PU_R ETR KT_PU_R KT_PU_R_T
AKT_PU_F ETF KT_PU_F KT_PU_F_T
.model KT_PU_R_T pwl2(
+ xy_array = [ 0. 0. 5p 0. 10p .004 20p .003 30p .004 40p .005 80p .007 85p .008 90p .009 95p .012 100p .014 105p .018
+ 110p .022 120p .031 125p .037 130p .043 135p .05 140p .057 145p .064 150p .071 155p .079 160p .086
+ 165p .094 170p .102 175p .11 180p .118 185p .127 190p .135 195p .143 200p .151 205p .157 210p .154
+ 215p .166 220p .169 235p .173 240p .183 246.667p .204 252.5p .23 257.5p .253 262.5p .277 267.5p .3 272.5p .323
+ 277.5p .344 282.5p .363 287.5p .382 292.5p .399 297.5p .414 302.5p .426 307.5p .438 312.5p .449 317.5p .465 325p .483
+ 330p .495 335p .499 340p .513 345p .524 355p .54 360p .547 365p .552 370p .557 375p .561 380p .566
+ 385p .572 390p .578 395p .585 400p .591 405p .598 410p .604 415p .61 420p .616 425p .623 430p .63
+ 435p .638 440p .646 445p .654 450p .661 455p .67 460p .678 465p .686 470p .694 475p .702 480p .71
+ 485p .718 490p .73 497.5p .735 502.5p .745 507.5p .753 512.5p .765 518.333p .774 525p .782 530p .795 535p .8
+ 540p .807 545p .816 550p .828 555p .833 562.5p .839 568.333p .849 575p .86 580p .874 585p .871 590p .878
+ 595p .886 600p .892 605p .897 610p .9 615p .906 620p .912 625p .918 630p .922 635p .927 640p .931
+ 645p .934 650p .936 655p .939 660p .943 665p .946 670p .949 675p .952 680p .954 685p .956 690p .958
+ 695p .96 700p .962 705p .964 710p .966 715p .968 720p .969 725p .971 730p .972 735p .973 740p .974
+ 745p .975 750p .977 755p .978 765p .979 775p .981 780p .982 785p .983 805p .985 815p .987 835p .988
+ 855p .99 890p .991 910p .992 920p .993 995p .995 1.085n .996 1.211n .997 1.784n .997 1.79n .997 1.796n 1. 101.796n 1. ] )
.model KT_PU_F_T pwl2(
+ xy_array = [ 0. 1. 10p .996 25p .998 40p 1.002 55p 1.014 60p 1.011 65p 1.007 70p 1.011 75p 1.018 80p 1.026 85p 1.034
+ 90p 1.043 95p 1.051 100p 1.058 105p 1.066 110p 1.072 120p 1.086 125p 1.093 130p 1.101 135p 1.11 140p 1.121
+ 145p 1.13 150p 1.138 155p 1.144 160p 1.148 170p 1.144 175p 1.135 180p 1.119 185p 1.1 190p 1.069 195p 1.029
+ 200p .981 205p .926 210p .861 215p .791 220p .714 225p .63 230p .542 235p .464 240p .389 246.667p .301
+ 252.5p .25 257.5p .198 262.5p .145 267.5p .106 272.5p .075 277.5p .05 282.5p .027 287.5p .008 292.5p -.007 297.5p -.019
+ 302.5p -.028 307.5p -.033 312.5p -.036 325p -.033 330p -.028 335p -.02 340p -.01 345p 212.209u 355p .023 360p .034
+ 365p .04 370p .044 380p .047 395p .043 400p .039 405p .037 410p .033 415p .028 420p .022 425p .017
+ 430p .011 435p .005 440p -882.127u 445p -.007 450p -.012 455p -.017 460p -.02 480p -.017 485p -.013 497.5p -.003
+ 502.5p -.007 507.5p -.003 515p -.006 521.667p .004 527.5p -.004 532.5p -.001 537.5p .004 550p .001 560p .004 577.5p 185.039u
+ 585p .006 620p .004 865p .002 1.784n 0. 1.79n 0. 1.796n 0. 101.796n 0. ] )
*
BPU PAD PU_REF I= V(EN) < .5 ? 0 : ; Off
+ V(A) > .5 ? V(PU_Current)*V(KT_PU_R) : V(PU_Current)*V(KT_PU_F)
XPU PU_Current 0 PU_REF PAD PULL_UP
*
* Ground Clamp IV;
.SUBCKT GND_CLAMP PAD_OUT GC_OUT PAD_IN GC_IN
* Connections     Out+ Out In+ In
AGndClamp %vd(PAD_IN,GC_IN) %vd(PAD_OUT,GC_OUT) transfer
.model transfer pwl2(
+ xy_array = [
+ -4.30000E+00 -8.78402E-01
+ -3.30000E+00 -8.78402E-01
+ -3.28500E+00 -8.70723E-01
+ -3.27500E+00 -8.65806E-01
+ -3.21500E+00 -8.36416E-01
+ -3.20500E+00 -8.31569E-01
+ -3.14000E+00 -8.00172E-01
+ -3.13500E+00 -7.97769E-01
+ -3.07500E+00 -7.69189E-01
+ -3.07000E+00 -7.66807E-01
+ -2.94500E+00 -7.08332E-01
+ -2.83500E+00 -6.58015E-01
+ -2.83000E+00 -6.55752E-01
+ -2.81500E+00 -6.48979E-01
+ -2.77500E+00 -6.31012E-01
+ -2.70500E+00 -5.99901E-01
+ -2.69500E+00 -5.95496E-01
+ -2.68000E+00 -5.88892E-01
+ -2.60000E+00 -5.54015E-01
+ -2.58500E+00 -5.47534E-01
+ -2.54500E+00 -5.30348E-01
+ -2.48000E+00 -5.02701E-01
+ -2.46000E+00 -4.94266E-01
+ -2.42500E+00 -4.79583E-01
+ -2.36000E+00 -4.52590E-01
+ -2.33500E+00 -4.42293E-01
+ -2.30500E+00 -4.30012E-01
+ -2.23500E+00 -4.01647E-01
+ -2.21000E+00 -3.91616E-01
+ -2.17500E+00 -3.77662E-01
+ -2.10500E+00 -3.50085E-01
+ -2.08500E+00 -3.42264E-01
+ -2.04500E+00 -3.26762E-01
+ -1.98500E+00 -3.03785E-01
+ -1.96000E+00 -2.94312E-01
+ -1.92000E+00 -2.79288E-01
+ -1.87000E+00 -2.60746E-01
+ -1.84000E+00 -2.49758E-01
+ -1.81000E+00 -2.38886E-01
+ -1.80500E+00 -2.37080E-01
+ -1.75500E+00 -2.19259E-01
+ -1.75000E+00 -2.17498E-01
+ -1.74000E+00 -2.13986E-01
+ -1.70000E+00 -2.00115E-01
+ -1.69000E+00 -1.96695E-01
+ -1.65500E+00 -1.84891E-01
+ -1.64500E+00 -1.81572E-01
+ -1.61000E+00 -1.70175E-01
+ -1.60000E+00 -1.66992E-01
+ -1.57000E+00 -1.57657E-01
+ -1.56500E+00 -1.56167E-01
+ -1.53500E+00 -1.47236E-01
+ -1.53000E+00 -1.45816E-01
+ -1.50000E+00 -1.37530E-01
+ -1.48000E+00 -1.32365E-01
+ -1.47000E+00 -1.29937E-01
+ -1.45500E+00 -1.26410E-01
+ -1.45000E+00 -1.25285E-01
+ -1.42500E+00 -1.19978E-01
+ -1.42000E+00 -1.18989E-01
+ -1.41000E+00 -1.17059E-01
+ -1.40500E+00 -1.16122E-01
+ -1.38500E+00 -1.12524E-01
+ -1.37500E+00 -1.10795E-01
+ -1.36000E+00 -1.08264E-01
+ -1.33500E+00 -1.04152E-01
+ -1.32000E+00 -1.01724E-01
+ -1.27000E+00 -9.37318E-02
+ -1.22000E+00 -8.58103E-02
+ -1.03000E+00 -5.60844E-02
+ -1.02500E+00 -5.53100E-02
+ -8.95000E-01 -3.54349E-02
+ -8.45000E-01 -2.80096E-02
+ -8.05000E-01 -2.22674E-02
+ -7.95000E-01 -2.08758E-02
+ -7.90000E-01 -2.01886E-02
+ -7.65000E-01 -1.68521E-02
+ -7.50000E-01 -1.49459E-02
+ -7.40000E-01 -1.37269E-02
+ -7.15000E-01 -1.08422E-02
+ -7.05000E-01 -9.82511E-03
+ -6.95000E-01 -8.80803E-03
+ -6.80000E-01 -7.33775E-03
+ -6.75000E-01 -6.89107E-03
+ -6.65000E-01 -6.04620E-03
+ -6.45000E-01 -4.53164E-03
+ -6.30000E-01 -3.55301E-03
+ -6.20000E-01 -2.98197E-03
+ -6.10000E-01 -2.47466E-03
+ -5.85000E-01 -1.47095E-03
+ -5.80000E-01 -1.31017E-03
+ -5.75000E-01 -1.16514E-03
+ -5.45000E-01 -5.37929E-04
+ -5.30000E-01 -3.48351E-04
+ -5.10000E-01 -1.82880E-04
+ -4.85000E-01 -6.74792E-05
+ -4.75000E-01 -3.50353E-05
+ -4.50000E-01 +0.00000E+00